-------------------------------------------------------
          Amber 20 PMEMD                              2020
          -------------------------------------------------------

  [-O]verwriting output

File Assignments:

 Here is the input file:

 &cntrl
  imin = 0, nstlim = 1000000, dt = 0.001,
  irest = 1, ntx = 5, ig = -1,
  temp0 = 298.0,
  ntc = 2, ntf = 2, tol = 0.00001,
  ntwx = 10000, ntwe = 0, ntwr = 1000, ntpr = 1000,
  cut = 8.0, iwrap = 0,
  ntt =3, gamma_ln=1.0, ntb = 2, ntp = 1, barostat = 2,
  nscm = 0,
  ntr=1, restraintmask=':1-688', restraint_wt=200.
  ioutfm=1, ntxo=2,
 /

Note: ig = -1. Setting random seed to   618065 based on wallclock time in
      microseconds.

--------------------------------------------------------------------------------
   1.  RESOURCE   USE:
--------------------------------------------------------------------------------

 getting box info from netcdf restart file
 NATOM  =   74824 NTYPES =      20 NBONH =   69084 MBONA  =    5673
 NTHETH =   12796 MTHETA =    7694 NPHIH =   25631 MPHIA  =   24780
 NHPARM =       0 NPARM  =       0 NNB   =  146680 NRES   =   22007
 NBONA  =    5673 NTHETA =    7694 NPHIA =   24780 NUMBND =      78
 NUMANG =     181 NPTRA  =     201 NATYP =      45 NPHB   =       0
 IFBOX  =       2 NMXRS  =      24 IFCAP =       0 NEXTRA =       0
 NCOPY  =       0

     BOX TYPE: TRUNCATED OCTAHEDRON

--------------------------------------------------------------------------------
   2.  CONTROL  DATA  FOR  THE  RUN
--------------------------------------------------------------------------------

default_name

General flags:
     imin    =       0, nmropt  =       0

Nature and format of input:
     ntx     =       5, irest   =       1, ntrx    =       1

Nature and format of output:
     ntxo    =       2, ntpr    =    1000, ntrx    =       1, ntwr    =    1000
     iwrap   =       0, ntwx    =   10000, ntwv    =       0, ntwe    =       0
     ioutfm  =       1, ntwprt  =       0, idecomp =       0, rbornstat=      0

Potential function:
     ntf     =       2, ntb     =       2, igb     =       0, nsnb    =      25
     ipol    =       0, gbsa    =       0, iesp    =       0
     dielc   =   1.00000, cut     =   8.00000, intdiel =   1.00000

Frozen or restrained atoms:
     ibelly  =       0, ntr     =       1
     restraint_wt = 200.00000

Molecular dynamics:
     nstlim  =   1000000, nscm    =         0, nrespa  =         1
     t       =   0.00000, dt      =   0.00100, vlimit  =  -1.00000

Langevin dynamics temperature regulation:
     ig      =  618065
     temp0   = 298.00000, tempi   =   0.00000, gamma_ln=   1.00000

Pressure regulation:
     ntp     =       1
     pres0   =   1.00000, comp    =  44.60000, taup    =   1.00000
     Monte-Carlo Barostat:
     mcbarint  =     100

SHAKE:
     ntc     =       2, jfastw  =       0
     tol     =   0.00001

Ewald parameters:
     verbose =       0, ew_type =       0, nbflag  =       1, use_pme =       1
     vdwmeth =       1, eedmeth =       1, netfrc  =       1
     Box X =  103.159   Box Y =  103.159   Box Z =  103.159
     Alpha =  109.471   Beta  =  109.471   Gamma =  109.471
     NFFT1 =  108       NFFT2 =  108       NFFT3 =  108
     Cutoff=    8.000   Tol   =0.100E-04
     Ewald Coefficient =  0.34864
     Interpolation order =    4

    LOADING THE CONSTRAINED ATOMS AS GROUPS

   5.  REFERENCE ATOM COORDINATES

  default_name
     Mask :1-688; matches 11197 atoms

--------------------------------------------------------------------------------
   3.  ATOMIC COORDINATES AND VELOCITIES
--------------------------------------------------------------------------------

default_name
 begin time read from input coords =  1000.000 ps

 Number of triangulated 3-point waters found:    21154

     Sum of charges from parm topology file =  -0.00000030
     Forcing neutrality...

--------------------------------------------------------------------------------
   4.  RESULTS
 NSTEP =     1000   TIME(PS) =    1001.000  TEMP(K) =   290.95  PRESS =     0.0
 Etot   =   -185032.8102  EKtot   =     44920.6016  EPtot      =   -229953.4118
 BOND   =      1404.0202  ANGLE   =      3792.2501  DIHED      =      8724.1071
 1-4 NB =      3110.0608  1-4 EEL =     29194.7498  VDWAALS    =     25411.1371
 EELEC  =   -307213.4872  EHBOND  =         0.0000  RESTRAINT  =      5623.7503
 EAMBER (non-restraint)  =   -235577.1621
 EKCMT  =         0.0000  VIRIAL  =         0.0000  VOLUME     =    843080.2404
                                                    Density    =         0.9163
 ------------------------------------------------------------------------------

      A V E R A G E S   O V E R    1000 S T E P S

 NSTEP =  1000000   TIME(PS) =    2000.000  TEMP(K) =   298.32  PRESS =     0.0
 Etot   =   -182865.0286  EKtot   =     46058.7168  EPtot      =   -228923.7454
 BOND   =      1480.5489  ANGLE   =      3991.6900  DIHED      =      8769.3921
 1-4 NB =      3113.8217  1-4 EEL =     29179.9931  VDWAALS    =     25308.6675
 EELEC  =   -307103.2745  EHBOND  =         0.0000  RESTRAINT  =      6335.4158
 EAMBER (non-restraint)  =   -235259.1612
 EKCMT  =         0.0000  VIRIAL  =         0.0000  VOLUME     =    824042.9090
                                                    Density    =         0.9375
 ------------------------------------------------------------------------------

      R M S  F L U C T U A T I O N S

 NSTEP =  1000000   TIME(PS) =    2000.000  TEMP(K) =     1.12  PRESS =     0.0
 Etot   =       300.5137  EKtot   =       172.9280  EPtot      =       244.5892
 BOND   =        26.0407  ANGLE   =        29.7691  DIHED      =        13.0936
 1-4 NB =         9.4839  1-4 EEL =        20.3022  VDWAALS    =       232.7425
 EELEC  =       364.6391  EHBOND  =         0.0000  RESTRAINT  =        62.2359
 EAMBER (non-restraint)  =       182.3533
 EKCMT  =         0.0000  VIRIAL  =         0.0000  VOLUME     =      1826.9437
                                                    Density    =         0.0021
 ------------------------------------------------------------------------------
