-------------------------------------------------------
          Amber 20 PMEMD                              2020
          -------------------------------------------------------

  [-O]verwriting output

File Assignments:

 Here is the input file:

 &cntrl
  imin = 0, nstlim = 1000000, dt = 0.001,
  irest = 1, ntx = 5, ig = -1,
  temp0 = 298.0,
  ntc = 2, ntf = 2, tol = 0.00001,
  ntwx = 10000, ntwe = 0, ntwr = 1000, ntpr = 1000,
  cut = 8.0, iwrap = 0,
  ntt =3,  gamma_ln=1.0, ntb = 2, ntp = 1,
  nscm = 0, barostat = 2,
  ntr=1, restraintmask=':1-688', restraint_wt=50.
  ioutfm=1, ntxo=2,
 /

Note: ig = -1. Setting random seed to   699522 based on wallclock time in
      microseconds.

--------------------------------------------------------------------------------
   1.  RESOURCE   USE:
--------------------------------------------------------------------------------

 getting box info from netcdf restart file
 NATOM  =   74824 NTYPES =      20 NBONH =   69084 MBONA  =    5673
 NTHETH =   12796 MTHETA =    7694 NPHIH =   25631 MPHIA  =   24780
 NHPARM =       0 NPARM  =       0 NNB   =  146680 NRES   =   22007
 NBONA  =    5673 NTHETA =    7694 NPHIA =   24780 NUMBND =      78
 NUMANG =     181 NPTRA  =     201 NATYP =      45 NPHB   =       0
 IFBOX  =       2 NMXRS  =      24 IFCAP =       0 NEXTRA =       0
 NCOPY  =       0

     BOX TYPE: TRUNCATED OCTAHEDRON

--------------------------------------------------------------------------------
   2.  CONTROL  DATA  FOR  THE  RUN
--------------------------------------------------------------------------------

default_name

General flags:
     imin    =       0, nmropt  =       0

Nature and format of input:
     ntx     =       5, irest   =       1, ntrx    =       1

Nature and format of output:
     ntxo    =       2, ntpr    =    1000, ntrx    =       1, ntwr    =    1000
     iwrap   =       0, ntwx    =   10000, ntwv    =       0, ntwe    =       0
     ioutfm  =       1, ntwprt  =       0, idecomp =       0, rbornstat=      0

Potential function:
     ntf     =       2, ntb     =       2, igb     =       0, nsnb    =      25
     ipol    =       0, gbsa    =       0, iesp    =       0
     dielc   =   1.00000, cut     =   8.00000, intdiel =   1.00000

Frozen or restrained atoms:
     ibelly  =       0, ntr     =       1
     restraint_wt =  50.00000

Molecular dynamics:
     nstlim  =   1000000, nscm    =         0, nrespa  =         1
     t       =   0.00000, dt      =   0.00100, vlimit  =  -1.00000

Langevin dynamics temperature regulation:
     ig      =  699522
     temp0   = 298.00000, tempi   =   0.00000, gamma_ln=   1.00000

Pressure regulation:
     ntp     =       1
     pres0   =   1.00000, comp    =  44.60000, taup    =   1.00000
     Monte-Carlo Barostat:
     mcbarint  =     100

SHAKE:
     ntc     =       2, jfastw  =       0
     tol     =   0.00001

Ewald parameters:
     verbose =       0, ew_type =       0, nbflag  =       1, use_pme =       1
     vdwmeth =       1, eedmeth =       1, netfrc  =       1
     Box X =  102.324   Box Y =  102.324   Box Z =  102.324
     Alpha =  109.471   Beta  =  109.471   Gamma =  109.471
     NFFT1 =  108       NFFT2 =  108       NFFT3 =  108
     Cutoff=    8.000   Tol   =0.100E-04
     Ewald Coefficient =  0.34864
     Interpolation order =    4

    LOADING THE CONSTRAINED ATOMS AS GROUPS

   5.  REFERENCE ATOM COORDINATES

  default_name
     Mask :1-688; matches 11197 atoms

--------------------------------------------------------------------------------
   3.  ATOMIC COORDINATES AND VELOCITIES
--------------------------------------------------------------------------------

default_name
 begin time read from input coords =  2000.000 ps

 Number of triangulated 3-point waters found:    21154

     Sum of charges from parm topology file =  -0.00000030
     Forcing neutrality...

--------------------------------------------------------------------------------
   4.  RESULTS
 NSTEP =     1000   TIME(PS) =    2001.000  TEMP(K) =   292.72  PRESS =     0.0
 Etot   =   -186099.1860  EKtot   =     45194.1797  EPtot      =   -231293.3657
 BOND   =      1585.6575  ANGLE   =      4466.0588  DIHED      =      8958.1679
 1-4 NB =      3018.7343  1-4 EEL =     28979.3412  VDWAALS    =     24633.2509
 EELEC  =   -307152.8337  EHBOND  =         0.0000  RESTRAINT  =      4218.2574
 EAMBER (non-restraint)  =   -235511.6231
 EKCMT  =         0.0000  VIRIAL  =         0.0000  VOLUME     =    824721.4374
                                                    Density    =         0.9367
 ------------------------------------------------------------------------------

      A V E R A G E S   O V E R    1000 S T E P S

 NSTEP =  1000000   TIME(PS) =    3000.000  TEMP(K) =   298.06  PRESS =     0.0
 Etot   =   -184613.4812  EKtot   =     46018.0480  EPtot      =   -230631.5292
 BOND   =      1679.6591  ANGLE   =      4736.5878  DIHED      =      8964.1987
 1-4 NB =      3055.5311  1-4 EEL =     28987.3576  VDWAALS    =     24787.9472
 EELEC  =   -307468.8872  EHBOND  =         0.0000  RESTRAINT  =      4626.0766
 EAMBER (non-restraint)  =   -235257.6057
 EKCMT  =         0.0000  VIRIAL  =         0.0000  VOLUME     =    812788.2825
                                                    Density    =         0.9505
 ------------------------------------------------------------------------------

      R M S  F L U C T U A T I O N S

 NSTEP =  1000000   TIME(PS) =    3000.000  TEMP(K) =     1.06  PRESS =     0.0
 Etot   =       292.7048  EKtot   =       163.8629  EPtot      =       249.4207
 BOND   =        29.3356  ANGLE   =        41.3988  DIHED      =        18.7303
 1-4 NB =        13.8764  1-4 EEL =        30.5831  VDWAALS    =       233.9722
 EELEC  =       382.7537  EHBOND  =         0.0000  RESTRAINT  =        46.8214
 EAMBER (non-restraint)  =       202.5993
 EKCMT  =         0.0000  VIRIAL  =         0.0000  VOLUME     =      1617.4033
                                                    Density    =         0.0019
 ------------------------------------------------------------------------------
