-------------------------------------------------------
          Amber 20 PMEMD                              2020
          -------------------------------------------------------

  [-O]verwriting output

File Assignments:

 Here is the input file:

 &cntrl
  imin = 0, nstlim = 1000000, dt = 0.001,
  irest = 1, ntx = 5, ig = -1,
  temp0 = 298.0,
  ntc = 2, ntf = 2, tol = 0.00001,
  ntwx = 10000, ntwe = 0, ntwr = 1000, ntpr = 1000,
  cut = 8.0, iwrap = 0,
  ntt =3, gamma_ln=1.0, ntb = 2, ntp = 1,
  nscm = 0, barostat = 2,
  ntr=1, restraintmask="@CA,N,C,C1,C2,C3,C4,C5,C6,C7,C8,C9,C10,C11,C12,C13,C14,
  restraint_wt=.5,
  ioutfm=1, ntxo=2,
 /

Note: ig = -1. Setting random seed to   928197 based on wallclock time in
      microseconds.

--------------------------------------------------------------------------------
   1.  RESOURCE   USE:
--------------------------------------------------------------------------------

 getting box info from netcdf restart file
 NATOM  =   74824 NTYPES =      20 NBONH =   69084 MBONA  =    5673
 NTHETH =   12796 MTHETA =    7694 NPHIH =   25631 MPHIA  =   24780
 NHPARM =       0 NPARM  =       0 NNB   =  146680 NRES   =   22007
 NBONA  =    5673 NTHETA =    7694 NPHIA =   24780 NUMBND =      78
 NUMANG =     181 NPTRA  =     201 NATYP =      45 NPHB   =       0
 IFBOX  =       2 NMXRS  =      24 IFCAP =       0 NEXTRA =       0
 NCOPY  =       0

     BOX TYPE: TRUNCATED OCTAHEDRON

--------------------------------------------------------------------------------
   2.  CONTROL  DATA  FOR  THE  RUN
--------------------------------------------------------------------------------

default_name

General flags:
     imin    =       0, nmropt  =       0

Nature and format of input:
     ntx     =       5, irest   =       1, ntrx    =       1

Nature and format of output:
     ntxo    =       2, ntpr    =    1000, ntrx    =       1, ntwr    =    1000
     iwrap   =       0, ntwx    =   10000, ntwv    =       0, ntwe    =       0
     ioutfm  =       1, ntwprt  =       0, idecomp =       0, rbornstat=      0

Potential function:
     ntf     =       2, ntb     =       2, igb     =       0, nsnb    =      25
     ipol    =       0, gbsa    =       0, iesp    =       0
     dielc   =   1.00000, cut     =   8.00000, intdiel =   1.00000

Frozen or restrained atoms:
     ibelly  =       0, ntr     =       1
     restraint_wt =   0.50000

Molecular dynamics:
     nstlim  =   1000000, nscm    =         0, nrespa  =         1
     t       =   0.00000, dt      =   0.00100, vlimit  =  -1.00000

Langevin dynamics temperature regulation:
     ig      =  928197
     temp0   = 298.00000, tempi   =   0.00000, gamma_ln=   1.00000

Pressure regulation:
     ntp     =       1
     pres0   =   1.00000, comp    =  44.60000, taup    =   1.00000
     Monte-Carlo Barostat:
     mcbarint  =     100

SHAKE:
     ntc     =       2, jfastw  =       0
     tol     =   0.00001

Ewald parameters:
     verbose =       0, ew_type =       0, nbflag  =       1, use_pme =       1
     vdwmeth =       1, eedmeth =       1, netfrc  =       1
     Box X =   99.009   Box Y =   99.009   Box Z =   99.009
     Alpha =  109.471   Beta  =  109.471   Gamma =  109.471
     NFFT1 =  100       NFFT2 =  100       NFFT3 =  100
     Cutoff=    8.000   Tol   =0.100E-04
     Ewald Coefficient =  0.34864
     Interpolation order =    4

    LOADING THE CONSTRAINED ATOMS AS GROUPS

   5.  REFERENCE ATOM COORDINATES

  default_name
     Mask @CA,N,C,C1,C2,C3,C4,C5,C6,C7,C8,C9,C10,C11,C12,C13,C14,C15,C16,C17,C18,C19,C20,O1,O1A,O2A,O3A,O1B,O2B,PA,PB; matches  2092 atoms

--------------------------------------------------------------------------------
   3.  ATOMIC COORDINATES AND VELOCITIES
--------------------------------------------------------------------------------

default_name
 begin time read from input coords =  2000.000 ps

 Number of triangulated 3-point waters found:    21154

     Sum of charges from parm topology file =  -0.00000030
     Forcing neutrality...

--------------------------------------------------------------------------------
   4.  RESULTS
 NSTEP =     1000   TIME(PS) =    2001.000  TEMP(K) =   298.23  PRESS =     0.0
 Etot   =   -194075.0224  EKtot   =     46044.5156  EPtot      =   -240119.5380
 BOND   =      2031.7706  ANGLE   =      5883.5116  DIHED      =      9489.4501
 1-4 NB =      2630.9599  1-4 EEL =     28250.6474  VDWAALS    =     24635.7700
 EELEC  =   -313204.5129  EHBOND  =         0.0000  RESTRAINT  =       162.8652
 EAMBER (non-restraint)  =   -240282.4033
 EKCMT  =         0.0000  VIRIAL  =         0.0000  VOLUME     =    747138.4743
                                                    Density    =         1.0340
 ------------------------------------------------------------------------------

      A V E R A G E S   O V E R    1000 S T E P S

 NSTEP =  1000000   TIME(PS) =    3000.000  TEMP(K) =   297.95  PRESS =     0.0
 Etot   =   -194669.6607  EKtot   =     46001.9964  EPtot      =   -240671.6571
 BOND   =      2034.0305  ANGLE   =      5833.8352  DIHED      =      9424.5681
 1-4 NB =      2659.8081  1-4 EEL =     28420.7090  VDWAALS    =     24593.5447
 EELEC  =   -313870.6482  EHBOND  =         0.0000  RESTRAINT  =       232.4955
 EAMBER (non-restraint)  =   -240904.1525
 EKCMT  =         0.0000  VIRIAL  =         0.0000  VOLUME     =    743536.0578
                                                    Density    =         1.0390
 ------------------------------------------------------------------------------

      R M S  F L U C T U A T I O N S

 NSTEP =  1000000   TIME(PS) =    3000.000  TEMP(K) =     1.02  PRESS =     0.0
 Etot   =       291.7345  EKtot   =       157.6072  EPtot      =       241.6211
 BOND   =        37.5645  ANGLE   =        55.6592  DIHED      =        31.8002
 1-4 NB =        21.6951  1-4 EEL =        56.8057  VDWAALS    =       235.9076
 EELEC  =       387.1773  EHBOND  =         0.0000  RESTRAINT  =        12.0433
 EAMBER (non-restraint)  =       229.5779
 EKCMT  =         0.0000  VIRIAL  =         0.0000  VOLUME     =      1245.8775
                                                    Density    =         0.0017
 ------------------------------------------------------------------------------
