-------------------------------------------------------
          Amber 20 PMEMD                              2020
          -------------------------------------------------------

  [-O]verwriting output

File Assignments:

 Here is the input file:

 &cntrl
  imin = 0, nstlim = 1000000, dt = 0.001,
  irest = 0, ntx = 1, ig = -1,
  tempi = 298.0, temp0 = 298.0,
  ntc = 2, ntf = 2, tol = 0.00001,
  ntwx = 10000, ntwe = 0, ntwr = 1000, ntpr = 1000,
  cut = 8.0, iwrap = 0,
  ntt =3, gamma_ln=1.0, ntb = 2, ntp = 1,
  nscm = 0, barostat = 2,
  ntr=1, restraintmask="@CA,N,C,C1,C2,C3,C4,C5,C6,C7,C8,C9,C10,C11,C12,C13,C14,
  restraint_wt=50.
  ioutfm=1, ntxo=2,
 /

Note: ig = -1. Setting random seed to   960034 based on wallclock time in
      microseconds.

--------------------------------------------------------------------------------
   1.  RESOURCE   USE:
--------------------------------------------------------------------------------

 getting box info from netcdf restart file
 NATOM  =   74847 NTYPES =      20 NBONH =   69112 MBONA  =    5676
 NTHETH =   12868 MTHETA =    7690 NPHIH =   25801 MPHIA  =   24788
 NHPARM =       0 NPARM  =       0 NNB   =  146888 NRES   =   21998
 NBONA  =    5676 NTHETA =    7690 NPHIA =   24788 NUMBND =      78
 NUMANG =     177 NPTRA  =     200 NATYP =      45 NPHB   =       0
 IFBOX  =       2 NMXRS  =      62 IFCAP =       0 NEXTRA =       0
 NCOPY  =       0

     BOX TYPE: TRUNCATED OCTAHEDRON

--------------------------------------------------------------------------------
   2.  CONTROL  DATA  FOR  THE  RUN
--------------------------------------------------------------------------------

default_name

General flags:
     imin    =       0, nmropt  =       0

Nature and format of input:
     ntx     =       1, irest   =       0, ntrx    =       1

Nature and format of output:
     ntxo    =       2, ntpr    =    1000, ntrx    =       1, ntwr    =    1000
     iwrap   =       0, ntwx    =   10000, ntwv    =       0, ntwe    =       0
     ioutfm  =       1, ntwprt  =       0, idecomp =       0, rbornstat=      0

Potential function:
     ntf     =       2, ntb     =       2, igb     =       0, nsnb    =      25
     ipol    =       0, gbsa    =       0, iesp    =       0
     dielc   =   1.00000, cut     =   8.00000, intdiel =   1.00000

Frozen or restrained atoms:
     ibelly  =       0, ntr     =       1
     restraint_wt =  50.00000

Molecular dynamics:
     nstlim  =   1000000, nscm    =         0, nrespa  =         1
     t       =   0.00000, dt      =   0.00100, vlimit  =  -1.00000

Langevin dynamics temperature regulation:
     ig      =  960034
     temp0   = 298.00000, tempi   = 298.00000, gamma_ln=   1.00000

Pressure regulation:
     ntp     =       1
     pres0   =   1.00000, comp    =  44.60000, taup    =   1.00000
     Monte-Carlo Barostat:
     mcbarint  =     100

SHAKE:
     ntc     =       2, jfastw  =       0
     tol     =   0.00001

Ewald parameters:
     verbose =       0, ew_type =       0, nbflag  =       1, use_pme =       1
     vdwmeth =       1, eedmeth =       1, netfrc  =       1
     Box X =  101.858   Box Y =  101.858   Box Z =  101.858
     Alpha =  109.471   Beta  =  109.471   Gamma =  109.471
     NFFT1 =  108       NFFT2 =  108       NFFT3 =  108
     Cutoff=    8.000   Tol   =0.100E-04
     Ewald Coefficient =  0.34864
     Interpolation order =    4

    LOADING THE CONSTRAINED ATOMS AS GROUPS

   5.  REFERENCE ATOM COORDINATES

  default_name
     Mask @CA,N,C,C1,C2,C3,C4,C5,C6,C7,C8,C9,C10,C11,C12,C13,C14,C15,C16,C17,C18,C19,C20,O1,O1A,O2A,O3A,O1B,O2B,PA,PB; matches  2096 atoms

--------------------------------------------------------------------------------
   3.  ATOMIC COORDINATES AND VELOCITIES
--------------------------------------------------------------------------------

default_name
 begin time read from input coords =     0.000 ps

 Number of triangulated 3-point waters found:    21153

     Sum of charges from parm topology file =  -0.00000030
     Forcing neutrality...

--------------------------------------------------------------------------------
   4.  RESULTS
 NSTEP =        0   TIME(PS) =       0.000  TEMP(K) =   431.14  PRESS =     0.0
 Etot   =   -180353.1470  EKtot   =     66583.2666  EPtot      =   -246936.4136
 BOND   =       301.0370  ANGLE   =      2007.8032  DIHED      =      8727.4773
 1-4 NB =      2796.1084  1-4 EEL =     28898.3329  VDWAALS    =     17202.6767
 EELEC  =   -306869.8492  EHBOND  =         0.0000  RESTRAINT  =         0.0000
 EKCMT  =         0.0000  VIRIAL  =         0.0000  VOLUME     =    813516.4188
                                                    Density    =         0.9491
 ------------------------------------------------------------------------------

      A V E R A G E S   O V E R    1000 S T E P S

 NSTEP =  1000000   TIME(PS) =    1000.000  TEMP(K) =   297.93  PRESS =     0.0
 Etot   =   -190728.8544  EKtot   =     46010.8087  EPtot      =   -236739.6631
 BOND   =      1923.9803  ANGLE   =      5733.1895  DIHED      =      9541.8574
 1-4 NB =      2809.3336  1-4 EEL =     28691.9570  VDWAALS    =     24250.0320
 EELEC  =   -310630.9226  EHBOND  =         0.0000  RESTRAINT  =       940.9098
 EAMBER (non-restraint)  =   -237680.5729
 EKCMT  =         0.0000  VIRIAL  =         0.0000  VOLUME     =    755821.7873
                                                    Density    =         1.0217
 ------------------------------------------------------------------------------

      R M S  F L U C T U A T I O N S

 NSTEP =  1000000   TIME(PS) =    1000.000  TEMP(K) =     1.15  PRESS =     0.0
 Etot   =       325.2746  EKtot   =       176.9530  EPtot      =       273.0302
 BOND   =        36.4338  ANGLE   =        56.4879  DIHED      =        31.0774
 1-4 NB =        19.8878  1-4 EEL =        57.2078  VDWAALS    =       229.6406
 EELEC  =       390.6362  EHBOND  =         0.0000  RESTRAINT  =        22.1719
 EAMBER (non-restraint)  =       250.8583
 EKCMT  =         0.0000  VIRIAL  =         0.0000  VOLUME     =      5684.5188
                                                    Density    =         0.0073
 ------------------------------------------------------------------------------
