-------------------------------------------------------
          Amber 20 PMEMD                              2020
          -------------------------------------------------------

  [-O]verwriting output

File Assignments:

 Here is the input file:

 &cntrl
  imin = 0, nstlim = 1000000, dt = 0.001,
  irest = 1, ntx = 5, ig = -1,
  temp0 = 298.0,
  ntc = 2, ntf = 2, tol = 0.00001,
  ntwx = 10000, ntwe = 0, ntwr = 1000, ntpr = 1000,
  cut = 8.0, iwrap = 0,
  ntt =3, gamma_ln=1.0, ntb = 2, ntp = 1,
  nscm = 0, barostat = 2,
  ntr=1, restraintmask="@CA,N,C,C1,C2,C3,C4,C5,C6,C7,C8,C9,C10,C11,C12,C13,C14,
  restraint_wt=.5,
  ioutfm=1, ntxo=2,
 /

Note: ig = -1. Setting random seed to   809505 based on wallclock time in
      microseconds.

--------------------------------------------------------------------------------
   1.  RESOURCE   USE:
--------------------------------------------------------------------------------

 getting box info from netcdf restart file
 NATOM  =   74847 NTYPES =      20 NBONH =   69112 MBONA  =    5676
 NTHETH =   12868 MTHETA =    7690 NPHIH =   25801 MPHIA  =   24788
 NHPARM =       0 NPARM  =       0 NNB   =  146888 NRES   =   21998
 NBONA  =    5676 NTHETA =    7690 NPHIA =   24788 NUMBND =      78
 NUMANG =     177 NPTRA  =     200 NATYP =      45 NPHB   =       0
 IFBOX  =       2 NMXRS  =      62 IFCAP =       0 NEXTRA =       0
 NCOPY  =       0

     BOX TYPE: TRUNCATED OCTAHEDRON

--------------------------------------------------------------------------------
   2.  CONTROL  DATA  FOR  THE  RUN
--------------------------------------------------------------------------------

default_name

General flags:
     imin    =       0, nmropt  =       0

Nature and format of input:
     ntx     =       5, irest   =       1, ntrx    =       1

Nature and format of output:
     ntxo    =       2, ntpr    =    1000, ntrx    =       1, ntwr    =    1000
     iwrap   =       0, ntwx    =   10000, ntwv    =       0, ntwe    =       0
     ioutfm  =       1, ntwprt  =       0, idecomp =       0, rbornstat=      0

Potential function:
     ntf     =       2, ntb     =       2, igb     =       0, nsnb    =      25
     ipol    =       0, gbsa    =       0, iesp    =       0
     dielc   =   1.00000, cut     =   8.00000, intdiel =   1.00000

Frozen or restrained atoms:
     ibelly  =       0, ntr     =       1
     restraint_wt =   0.50000

Molecular dynamics:
     nstlim  =   1000000, nscm    =         0, nrespa  =         1
     t       =   0.00000, dt      =   0.00100, vlimit  =  -1.00000

Langevin dynamics temperature regulation:
     ig      =  809505
     temp0   = 298.00000, tempi   =   0.00000, gamma_ln=   1.00000

Pressure regulation:
     ntp     =       1
     pres0   =   1.00000, comp    =  44.60000, taup    =   1.00000
     Monte-Carlo Barostat:
     mcbarint  =     100

SHAKE:
     ntc     =       2, jfastw  =       0
     tol     =   0.00001

Ewald parameters:
     verbose =       0, ew_type =       0, nbflag  =       1, use_pme =       1
     vdwmeth =       1, eedmeth =       1, netfrc  =       1
     Box X =   99.064   Box Y =   99.064   Box Z =   99.064
     Alpha =  109.471   Beta  =  109.471   Gamma =  109.471
     NFFT1 =  100       NFFT2 =  100       NFFT3 =  100
     Cutoff=    8.000   Tol   =0.100E-04
     Ewald Coefficient =  0.34864
     Interpolation order =    4

    LOADING THE CONSTRAINED ATOMS AS GROUPS

   5.  REFERENCE ATOM COORDINATES

  default_name
     Mask @CA,N,C,C1,C2,C3,C4,C5,C6,C7,C8,C9,C10,C11,C12,C13,C14,C15,C16,C17,C18,C19,C20,O1,O1A,O2A,O3A,O1B,O2B,PA,PB; matches  2096 atoms

--------------------------------------------------------------------------------
   3.  ATOMIC COORDINATES AND VELOCITIES
--------------------------------------------------------------------------------

default_name
 begin time read from input coords =  2000.000 ps

 Number of triangulated 3-point waters found:    21153

     Sum of charges from parm topology file =  -0.00000030
     Forcing neutrality...

--------------------------------------------------------------------------------
   4.  RESULTS
 NSTEP =     1000   TIME(PS) =    2001.000  TEMP(K) =   299.56  PRESS =     0.0
 Etot   =   -192573.4678  EKtot   =     46261.9492  EPtot      =   -238835.4170
 BOND   =      2029.8154  ANGLE   =      5817.9034  DIHED      =      9433.8490
 1-4 NB =      2660.3979  1-4 EEL =     28434.9506  VDWAALS    =     23974.8158
 EELEC  =   -311349.1041  EHBOND  =         0.0000  RESTRAINT  =       161.9551
 EAMBER (non-restraint)  =   -238997.3721
 EKCMT  =         0.0000  VIRIAL  =         0.0000  VOLUME     =    748153.2152
                                                    Density    =         1.0321
 ------------------------------------------------------------------------------

      A V E R A G E S   O V E R    1000 S T E P S

 NSTEP =  1000000   TIME(PS) =    3000.000  TEMP(K) =   298.08  PRESS =     0.0
 Etot   =   -192906.2428  EKtot   =     46033.6396  EPtot      =   -238939.8823
 BOND   =      2031.7680  ANGLE   =      5803.4715  DIHED      =      9444.9573
 1-4 NB =      2663.9390  1-4 EEL =     28403.6358  VDWAALS    =     24472.2257
 EELEC  =   -311980.4788  EHBOND  =         0.0000  RESTRAINT  =       220.5991
 EAMBER (non-restraint)  =   -239160.4814
 EKCMT  =         0.0000  VIRIAL  =         0.0000  VOLUME     =    744212.8093
                                                    Density    =         1.0375
 ------------------------------------------------------------------------------

      R M S  F L U C T U A T I O N S

 NSTEP =  1000000   TIME(PS) =    3000.000  TEMP(K) =     1.10  PRESS =     0.0
 Etot   =       282.5997  EKtot   =       169.6309  EPtot      =       232.8754
 BOND   =        37.3458  ANGLE   =        54.6477  DIHED      =        31.6753
 1-4 NB =        20.7798  1-4 EEL =        53.9234  VDWAALS    =       227.4877
 EELEC  =       365.5337  EHBOND  =         0.0000  RESTRAINT  =        12.1349
 EAMBER (non-restraint)  =       220.7405
 EKCMT  =         0.0000  VIRIAL  =         0.0000  VOLUME     =      1312.9789
                                                    Density    =         0.0018
 ------------------------------------------------------------------------------
