-------------------------------------------------------
          Amber 20 PMEMD                              2020
          -------------------------------------------------------

  [-O]verwriting output

File Assignments:

 Here is the input file:

 &cntrl
  imin = 0, nstlim = 1000000, dt = 0.001,
  irest = 1, ntx = 5, ig = -1,
  temp0 = 298.0,
  ntc = 2, ntf = 2, tol = 0.00001,
  ntwx = 10000, ntwe = 0, ntwr = 1000, ntpr = 1000,
  cut = 8.0, iwrap = 0,
  ntt =3, gamma_ln=1.0, ntb = 2, ntp = 1, barostat = 2,
  nscm = 0,
  ntr=1, restraintmask=':1-688', restraint_wt=200.
  ioutfm=1, ntxo=2,
 /

Note: ig = -1. Setting random seed to   583271 based on wallclock time in
      microseconds.

--------------------------------------------------------------------------------
   1.  RESOURCE   USE:
--------------------------------------------------------------------------------

 getting box info from netcdf restart file
 NATOM  =   74832 NTYPES =      20 NBONH =   69083 MBONA  =    5682
 NTHETH =   12834 MTHETA =    7704 NPHIH =   25715 MPHIA  =   24794
 NHPARM =       0 NPARM  =       0 NNB   =  146796 NRES   =   22001
 NBONA  =    5682 NTHETA =    7704 NPHIA =   24794 NUMBND =      78
 NUMANG =     180 NPTRA  =     201 NATYP =      45 NPHB   =       0
 IFBOX  =       2 NMXRS  =      36 IFCAP =       0 NEXTRA =       0
 NCOPY  =       0

     BOX TYPE: TRUNCATED OCTAHEDRON

--------------------------------------------------------------------------------
   2.  CONTROL  DATA  FOR  THE  RUN
--------------------------------------------------------------------------------

default_name

General flags:
     imin    =       0, nmropt  =       0

Nature and format of input:
     ntx     =       5, irest   =       1, ntrx    =       1

Nature and format of output:
     ntxo    =       2, ntpr    =    1000, ntrx    =       1, ntwr    =    1000
     iwrap   =       0, ntwx    =   10000, ntwv    =       0, ntwe    =       0
     ioutfm  =       1, ntwprt  =       0, idecomp =       0, rbornstat=      0

Potential function:
     ntf     =       2, ntb     =       2, igb     =       0, nsnb    =      25
     ipol    =       0, gbsa    =       0, iesp    =       0
     dielc   =   1.00000, cut     =   8.00000, intdiel =   1.00000

Frozen or restrained atoms:
     ibelly  =       0, ntr     =       1
     restraint_wt = 200.00000

Molecular dynamics:
     nstlim  =   1000000, nscm    =         0, nrespa  =         1
     t       =   0.00000, dt      =   0.00100, vlimit  =  -1.00000

Langevin dynamics temperature regulation:
     ig      =  583271
     temp0   = 298.00000, tempi   =   0.00000, gamma_ln=   1.00000

Pressure regulation:
     ntp     =       1
     pres0   =   1.00000, comp    =  44.60000, taup    =   1.00000
     Monte-Carlo Barostat:
     mcbarint  =     100

SHAKE:
     ntc     =       2, jfastw  =       0
     tol     =   0.00001

Ewald parameters:
     verbose =       0, ew_type =       0, nbflag  =       1, use_pme =       1
     vdwmeth =       1, eedmeth =       1, netfrc  =       1
     Box X =  103.151   Box Y =  103.151   Box Z =  103.151
     Alpha =  109.471   Beta  =  109.471   Gamma =  109.471
     NFFT1 =  108       NFFT2 =  108       NFFT3 =  108
     Cutoff=    8.000   Tol   =0.100E-04
     Ewald Coefficient =  0.34864
     Interpolation order =    4

    LOADING THE CONSTRAINED ATOMS AS GROUPS

   5.  REFERENCE ATOM COORDINATES

  default_name
     Mask :1-688; matches 11223 atoms

--------------------------------------------------------------------------------
   3.  ATOMIC COORDINATES AND VELOCITIES
--------------------------------------------------------------------------------

default_name
 begin time read from input coords =  1000.000 ps

 Number of triangulated 3-point waters found:    21148

     Sum of charges from parm topology file =  -0.00000030
     Forcing neutrality...

--------------------------------------------------------------------------------
   4.  RESULTS
 NSTEP =     1000   TIME(PS) =    1001.000  TEMP(K) =   290.90  PRESS =     0.0
 Etot   =   -185001.2677  EKtot   =     44920.8320  EPtot      =   -229922.0998
 BOND   =      1383.6032  ANGLE   =      3833.0605  DIHED      =      8675.4307
 1-4 NB =      3123.2651  1-4 EEL =     29206.1082  VDWAALS    =     25176.6322
 EELEC  =   -306955.8876  EHBOND  =         0.0000  RESTRAINT  =      5635.6881
 EAMBER (non-restraint)  =   -235557.7878
 EKCMT  =         0.0000  VIRIAL  =         0.0000  VOLUME     =    841948.1091
                                                    Density    =         0.9176
 ------------------------------------------------------------------------------

      A V E R A G E S   O V E R    1000 S T E P S

 NSTEP =  1000000   TIME(PS) =    2000.000  TEMP(K) =   298.30  PRESS =     0.0
 Etot   =   -182795.5409  EKtot   =     46062.4328  EPtot      =   -228857.9736
 BOND   =      1475.2859  ANGLE   =      4028.5467  DIHED      =      8712.3293
 1-4 NB =      3113.2202  1-4 EEL =     29176.7400  VDWAALS    =     25382.2023
 EELEC  =   -307096.9571  EHBOND  =         0.0000  RESTRAINT  =      6350.6591
 EAMBER (non-restraint)  =   -235208.6328
 EKCMT  =         0.0000  VIRIAL  =         0.0000  VOLUME     =    824187.0565
                                                    Density    =         0.9374
 ------------------------------------------------------------------------------

      R M S  F L U C T U A T I O N S

 NSTEP =  1000000   TIME(PS) =    2000.000  TEMP(K) =     1.10  PRESS =     0.0
 Etot   =       315.5044  EKtot   =       170.6152  EPtot      =       253.6676
 BOND   =        27.4699  ANGLE   =        30.4443  DIHED      =        13.2366
 1-4 NB =         9.4498  1-4 EEL =        20.7683  VDWAALS    =       230.4349
 EELEC  =       377.6250  EHBOND  =         0.0000  RESTRAINT  =        60.7708
 EAMBER (non-restraint)  =       192.8968
 EKCMT  =         0.0000  VIRIAL  =         0.0000  VOLUME     =      1773.6894
                                                    Density    =         0.0020
 ------------------------------------------------------------------------------
