-------------------------------------------------------
          Amber 20 PMEMD                              2020
          -------------------------------------------------------

  [-O]verwriting output

File Assignments:

 Here is the input file:

 &cntrl
  imin = 0, nstlim = 1000000, dt = 0.001,
  irest = 1, ntx = 5, ig = -1,
  temp0 = 298.0,
  ntc = 2, ntf = 2, tol = 0.00001,
  ntwx = 10000, ntwe = 0, ntwr = 1000, ntpr = 1000,
  cut = 8.0, iwrap = 0,
  ntt =3,  gamma_ln=1.0, ntb = 2, ntp = 1,
  nscm = 0, barostat = 2,
  ntr=1, restraintmask=':1-688', restraint_wt=50.
  ioutfm=1, ntxo=2,
 /

Note: ig = -1. Setting random seed to   197439 based on wallclock time in
      microseconds.

--------------------------------------------------------------------------------
   1.  RESOURCE   USE:
--------------------------------------------------------------------------------

 getting box info from netcdf restart file
 NATOM  =   74621 NTYPES =      20 NBONH =   68860 MBONA  =    5696
 NTHETH =   12876 MTHETA =    7722 NPHIH =   25805 MPHIA  =   24838
 NHPARM =       0 NPARM  =       0 NNB   =  146656 NRES   =   21918
 NBONA  =    5696 NTHETA =    7722 NPHIA =   24838 NUMBND =      80
 NUMANG =     183 NPTRA  =     212 NATYP =      47 NPHB   =       0
 IFBOX  =       2 NMXRS  =      36 IFCAP =       0 NEXTRA =       0
 NCOPY  =       0

     BOX TYPE: TRUNCATED OCTAHEDRON

--------------------------------------------------------------------------------
   2.  CONTROL  DATA  FOR  THE  RUN
--------------------------------------------------------------------------------

default_name

General flags:
     imin    =       0, nmropt  =       0

Nature and format of input:
     ntx     =       5, irest   =       1, ntrx    =       1

Nature and format of output:
     ntxo    =       2, ntpr    =    1000, ntrx    =       1, ntwr    =    1000
     iwrap   =       0, ntwx    =   10000, ntwv    =       0, ntwe    =       0
     ioutfm  =       1, ntwprt  =       0, idecomp =       0, rbornstat=      0

Potential function:
     ntf     =       2, ntb     =       2, igb     =       0, nsnb    =      25
     ipol    =       0, gbsa    =       0, iesp    =       0
     dielc   =   1.00000, cut     =   8.00000, intdiel =   1.00000

Frozen or restrained atoms:
     ibelly  =       0, ntr     =       1
     restraint_wt =  50.00000

Molecular dynamics:
     nstlim  =   1000000, nscm    =         0, nrespa  =         1
     t       =   0.00000, dt      =   0.00100, vlimit  =  -1.00000

Langevin dynamics temperature regulation:
     ig      =  197439
     temp0   = 298.00000, tempi   =   0.00000, gamma_ln=   1.00000

Pressure regulation:
     ntp     =       1
     pres0   =   1.00000, comp    =  44.60000, taup    =   1.00000
     Monte-Carlo Barostat:
     mcbarint  =     100

SHAKE:
     ntc     =       2, jfastw  =       0
     tol     =   0.00001

Ewald parameters:
     verbose =       0, ew_type =       0, nbflag  =       1, use_pme =       1
     vdwmeth =       1, eedmeth =       1, netfrc  =       1
     Box X =  102.312   Box Y =  102.312   Box Z =  102.312
     Alpha =  109.471   Beta  =  109.471   Gamma =  109.471
     NFFT1 =  108       NFFT2 =  108       NFFT3 =  108
     Cutoff=    8.000   Tol   =0.100E-04
     Ewald Coefficient =  0.34864
     Interpolation order =    4

    LOADING THE CONSTRAINED ATOMS AS GROUPS

   5.  REFERENCE ATOM COORDINATES

  default_name
     Mask :1-688; matches 11257 atoms

--------------------------------------------------------------------------------
   3.  ATOMIC COORDINATES AND VELOCITIES
--------------------------------------------------------------------------------

default_name
 begin time read from input coords =  2000.000 ps

 Number of triangulated 3-point waters found:    21067

     Sum of charges from parm topology file =  -0.00000029
     Forcing neutrality...

--------------------------------------------------------------------------------
   4.  RESULTS
 NSTEP =     1000   TIME(PS) =    2001.000  TEMP(K) =   293.09  PRESS =     0.0
 Etot   =   -185650.5055  EKtot   =     45138.1406  EPtot      =   -230788.6461
 BOND   =      1621.0009  ANGLE   =      4563.0600  DIHED      =      8883.2866
 1-4 NB =      3083.5513  1-4 EEL =     28412.6582  VDWAALS    =     24637.6942
 EELEC  =   -306315.2068  EHBOND  =         0.0000  RESTRAINT  =      4325.3096
 EAMBER (non-restraint)  =   -235113.9557
 EKCMT  =         0.0000  VIRIAL  =         0.0000  VOLUME     =    822029.3834
                                                    Density    =         0.9373
 ------------------------------------------------------------------------------

      A V E R A G E S   O V E R    1000 S T E P S

 NSTEP =  1000000   TIME(PS) =    3000.000  TEMP(K) =   298.18  PRESS =     0.0
 Etot   =   -184041.2157  EKtot   =     45922.3208  EPtot      =   -229963.5365
 BOND   =      1698.8861  ANGLE   =      4799.2164  DIHED      =      8908.1730
 1-4 NB =      3073.2198  1-4 EEL =     28451.9809  VDWAALS    =     24764.0182
 EELEC  =   -306328.9202  EHBOND  =         0.0000  RESTRAINT  =      4669.8894
 EAMBER (non-restraint)  =   -234633.4259
 EKCMT  =         0.0000  VIRIAL  =         0.0000  VOLUME     =    811262.3792
                                                    Density    =         0.9497
 ------------------------------------------------------------------------------

      R M S  F L U C T U A T I O N S

 NSTEP =  1000000   TIME(PS) =    3000.000  TEMP(K) =     1.06  PRESS =     0.0
 Etot   =       290.7667  EKtot   =       163.2657  EPtot      =       237.0569
 BOND   =        31.1222  ANGLE   =        41.5961  DIHED      =        18.3428
 1-4 NB =        13.7731  1-4 EEL =        31.1853  VDWAALS    =       238.7095
 EELEC  =       380.2416  EHBOND  =         0.0000  RESTRAINT  =        47.2942
 EAMBER (non-restraint)  =       189.7627
 EKCMT  =         0.0000  VIRIAL  =         0.0000  VOLUME     =      1515.9568
                                                    Density    =         0.0018
 ------------------------------------------------------------------------------
