-------------------------------------------------------
          Amber 20 PMEMD                              2020
          -------------------------------------------------------

  [-O]verwriting output

File Assignments:

 Here is the input file:

 &cntrl
  imin = 0, nstlim = 1000000, dt = 0.001,
  irest = 0, ntx = 1, ig = -1,
  tempi = 298.0, temp0 = 298.0,
  ntc = 2, ntf = 2, tol = 0.00001,
  ntwx = 10000, ntwe = 0, ntwr = 1000, ntpr = 1000,
  cut = 8.0, iwrap = 0,
  ntt =3, gamma_ln=1.0, ntb = 2, ntp = 1,
  nscm = 0, barostat = 2,
  ntr=1, restraintmask="@CA,N,C,C1,C2,C3,C4,C5,C6,C7,C8,C9,C10,C11,C12,C13,C14,
  restraint_wt=50.
  ioutfm=1, ntxo=2,
 /

Note: ig = -1. Setting random seed to   508475 based on wallclock time in
      microseconds.

--------------------------------------------------------------------------------
   1.  RESOURCE   USE:
--------------------------------------------------------------------------------

 getting box info from netcdf restart file
 NATOM  =   74621 NTYPES =      20 NBONH =   68860 MBONA  =    5696
 NTHETH =   12876 MTHETA =    7722 NPHIH =   25805 MPHIA  =   24838
 NHPARM =       0 NPARM  =       0 NNB   =  146656 NRES   =   21918
 NBONA  =    5696 NTHETA =    7722 NPHIA =   24838 NUMBND =      80
 NUMANG =     183 NPTRA  =     212 NATYP =      47 NPHB   =       0
 IFBOX  =       2 NMXRS  =      36 IFCAP =       0 NEXTRA =       0
 NCOPY  =       0

     BOX TYPE: TRUNCATED OCTAHEDRON

--------------------------------------------------------------------------------
   2.  CONTROL  DATA  FOR  THE  RUN
--------------------------------------------------------------------------------

default_name

General flags:
     imin    =       0, nmropt  =       0

Nature and format of input:
     ntx     =       1, irest   =       0, ntrx    =       1

Nature and format of output:
     ntxo    =       2, ntpr    =    1000, ntrx    =       1, ntwr    =    1000
     iwrap   =       0, ntwx    =   10000, ntwv    =       0, ntwe    =       0
     ioutfm  =       1, ntwprt  =       0, idecomp =       0, rbornstat=      0

Potential function:
     ntf     =       2, ntb     =       2, igb     =       0, nsnb    =      25
     ipol    =       0, gbsa    =       0, iesp    =       0
     dielc   =   1.00000, cut     =   8.00000, intdiel =   1.00000

Frozen or restrained atoms:
     ibelly  =       0, ntr     =       1
     restraint_wt =  50.00000

Molecular dynamics:
     nstlim  =   1000000, nscm    =         0, nrespa  =         1
     t       =   0.00000, dt      =   0.00100, vlimit  =  -1.00000

Langevin dynamics temperature regulation:
     ig      =  508475
     temp0   = 298.00000, tempi   = 298.00000, gamma_ln=   1.00000

Pressure regulation:
     ntp     =       1
     pres0   =   1.00000, comp    =  44.60000, taup    =   1.00000
     Monte-Carlo Barostat:
     mcbarint  =     100

SHAKE:
     ntc     =       2, jfastw  =       0
     tol     =   0.00001

Ewald parameters:
     verbose =       0, ew_type =       0, nbflag  =       1, use_pme =       1
     vdwmeth =       1, eedmeth =       1, netfrc  =       1
     Box X =  101.750   Box Y =  101.750   Box Z =  101.750
     Alpha =  109.471   Beta  =  109.471   Gamma =  109.471
     NFFT1 =  108       NFFT2 =  108       NFFT3 =  108
     Cutoff=    8.000   Tol   =0.100E-04
     Ewald Coefficient =  0.34864
     Interpolation order =    4

    LOADING THE CONSTRAINED ATOMS AS GROUPS

   5.  REFERENCE ATOM COORDINATES

  default_name
     Mask @CA,N,C,C1,C2,C3,C4,C5,C6,C7,C8,C9,C10,C11,C12,C13,C14,C15,C16,C17,C18,C19,C20,O1,O1A,O2A,O3A,O1B,O2B,PA,PB; matches  2102 atoms

--------------------------------------------------------------------------------
   3.  ATOMIC COORDINATES AND VELOCITIES
--------------------------------------------------------------------------------

default_name
 begin time read from input coords =     0.000 ps

 Number of triangulated 3-point waters found:    21067

     Sum of charges from parm topology file =  -0.00000029
     Forcing neutrality...

--------------------------------------------------------------------------------
   4.  RESULTS
 NSTEP =        0   TIME(PS) =       0.000  TEMP(K) =   430.55  PRESS =     0.0
 Etot   =   -180469.9005  EKtot   =     66309.1908  EPtot      =   -246779.0913
 BOND   =       318.9974  ANGLE   =      2103.5974  DIHED      =      8499.0172
 1-4 NB =      2829.7137  1-4 EEL =     28355.3187  VDWAALS    =     17071.4710
 EELEC  =   -305957.2067  EHBOND  =         0.0000  RESTRAINT  =         0.0000
 EKCMT  =         0.0000  VIRIAL  =         0.0000  VOLUME     =    810921.3126
                                                    Density    =         0.9501
 ------------------------------------------------------------------------------

      A V E R A G E S   O V E R    1000 S T E P S

 NSTEP =  1000000   TIME(PS) =    1000.000  TEMP(K) =   298.00  PRESS =     0.0
 Etot   =   -191401.8303  EKtot   =     45895.8406  EPtot      =   -237297.6708
 BOND   =      1933.2708  ANGLE   =      5815.5574  DIHED      =      9557.9983
 1-4 NB =      2810.4321  1-4 EEL =     28096.5454  VDWAALS    =     24181.2587
 EELEC  =   -310667.4189  EHBOND  =         0.0000  RESTRAINT  =       974.6854
 EAMBER (non-restraint)  =   -238272.3562
 EKCMT  =         0.0000  VIRIAL  =         0.0000  VOLUME     =    753611.1818
                                                    Density    =         1.0224
 ------------------------------------------------------------------------------

      R M S  F L U C T U A T I O N S

 NSTEP =  1000000   TIME(PS) =    1000.000  TEMP(K) =     1.17  PRESS =     0.0
 Etot   =       363.3892  EKtot   =       180.7974  EPtot      =       310.9467
 BOND   =        35.3947  ANGLE   =        59.9589  DIHED      =        32.3628
 1-4 NB =        19.7745  1-4 EEL =        46.5770  VDWAALS    =       221.7037
 EELEC  =       416.9996  EHBOND  =         0.0000  RESTRAINT  =        21.9188
 EAMBER (non-restraint)  =       289.0278
 EKCMT  =         0.0000  VIRIAL  =         0.0000  VOLUME     =      6273.2689
                                                    Density    =         0.0081
 ------------------------------------------------------------------------------
