-------------------------------------------------------
          Amber 20 PMEMD                              2020
          -------------------------------------------------------

  [-O]verwriting output

File Assignments:

 Here is the input file:

 &cntrl
  imin = 0, nstlim = 1000000, dt = 0.001,
  irest = 1, ntx = 5, ig = -1,
  temp0 = 298.0,
  ntc = 2, ntf = 2, tol = 0.00001,
  ntwx = 10000, ntwe = 0, ntwr = 1000, ntpr = 1000,
  cut = 8.0, iwrap = 0,
  ntt =3, gamma_ln=1.0, ntb = 2, ntp = 1, barostat = 2,
  nscm = 0,
  ntr=1, restraintmask=':1-688', restraint_wt=200.
  ioutfm=1, ntxo=2,
 /

Note: ig = -1. Setting random seed to   192825 based on wallclock time in
      microseconds.

--------------------------------------------------------------------------------
   1.  RESOURCE   USE:
--------------------------------------------------------------------------------

 getting box info from netcdf restart file
 NATOM  =   74830 NTYPES =      20 NBONH =   69088 MBONA  =    5677
 NTHETH =   12810 MTHETA =    7702 NPHIH =   25645 MPHIA  =   24796
 NHPARM =       0 NPARM  =       0 NNB   =  146740 NRES   =   22007
 NBONA  =    5677 NTHETA =    7702 NPHIA =   24796 NUMBND =      78
 NUMANG =     181 NPTRA  =     201 NATYP =      45 NPHB   =       0
 IFBOX  =       2 NMXRS  =      24 IFCAP =       0 NEXTRA =       0
 NCOPY  =       0

     BOX TYPE: TRUNCATED OCTAHEDRON

--------------------------------------------------------------------------------
   2.  CONTROL  DATA  FOR  THE  RUN
--------------------------------------------------------------------------------

default_name

General flags:
     imin    =       0, nmropt  =       0

Nature and format of input:
     ntx     =       5, irest   =       1, ntrx    =       1

Nature and format of output:
     ntxo    =       2, ntpr    =    1000, ntrx    =       1, ntwr    =    1000
     iwrap   =       0, ntwx    =   10000, ntwv    =       0, ntwe    =       0
     ioutfm  =       1, ntwprt  =       0, idecomp =       0, rbornstat=      0

Potential function:
     ntf     =       2, ntb     =       2, igb     =       0, nsnb    =      25
     ipol    =       0, gbsa    =       0, iesp    =       0
     dielc   =   1.00000, cut     =   8.00000, intdiel =   1.00000

Frozen or restrained atoms:
     ibelly  =       0, ntr     =       1
     restraint_wt = 200.00000

Molecular dynamics:
     nstlim  =   1000000, nscm    =         0, nrespa  =         1
     t       =   0.00000, dt      =   0.00100, vlimit  =  -1.00000

Langevin dynamics temperature regulation:
     ig      =  192825
     temp0   = 298.00000, tempi   =   0.00000, gamma_ln=   1.00000

Pressure regulation:
     ntp     =       1
     pres0   =   1.00000, comp    =  44.60000, taup    =   1.00000
     Monte-Carlo Barostat:
     mcbarint  =     100

SHAKE:
     ntc     =       2, jfastw  =       0
     tol     =   0.00001

Ewald parameters:
     verbose =       0, ew_type =       0, nbflag  =       1, use_pme =       1
     vdwmeth =       1, eedmeth =       1, netfrc  =       1
     Box X =  103.153   Box Y =  103.153   Box Z =  103.153
     Alpha =  109.471   Beta  =  109.471   Gamma =  109.471
     NFFT1 =  108       NFFT2 =  108       NFFT3 =  108
     Cutoff=    8.000   Tol   =0.100E-04
     Ewald Coefficient =  0.34864
     Interpolation order =    4

    LOADING THE CONSTRAINED ATOMS AS GROUPS

   5.  REFERENCE ATOM COORDINATES

  default_name
     Mask :1-688; matches 11203 atoms

--------------------------------------------------------------------------------
   3.  ATOMIC COORDINATES AND VELOCITIES
--------------------------------------------------------------------------------

default_name
 begin time read from input coords =  1000.000 ps

 Number of triangulated 3-point waters found:    21154

     Sum of charges from parm topology file =  -0.00000029
     Forcing neutrality...

--------------------------------------------------------------------------------
   4.  RESULTS
 NSTEP =     1000   TIME(PS) =    1001.000  TEMP(K) =   291.68  PRESS =     0.0
 Etot   =   -185136.9208  EKtot   =     45036.7891  EPtot      =   -230173.7099
 BOND   =      1427.9790  ANGLE   =      3836.1145  DIHED      =      8763.7040
 1-4 NB =      3114.6411  1-4 EEL =     29167.8509  VDWAALS    =     25465.4632
 EELEC  =   -307531.9032  EHBOND  =         0.0000  RESTRAINT  =      5582.4408
 EAMBER (non-restraint)  =   -235756.1507
 EKCMT  =         0.0000  VIRIAL  =         0.0000  VOLUME     =    838995.2284
                                                    Density    =         0.9208
 ------------------------------------------------------------------------------

      A V E R A G E S   O V E R    1000 S T E P S

 NSTEP =  1000000   TIME(PS) =    2000.000  TEMP(K) =   298.38  PRESS =     0.0
 Etot   =   -182968.3379  EKtot   =     46072.5263  EPtot      =   -229040.8642
 BOND   =      1478.0406  ANGLE   =      4033.1240  DIHED      =      8777.6481
 1-4 NB =      3114.7507  1-4 EEL =     29180.1575  VDWAALS    =     25274.5476
 EELEC  =   -307247.3271  EHBOND  =         0.0000  RESTRAINT  =      6348.1944
 EAMBER (non-restraint)  =   -235389.0586
 EKCMT  =         0.0000  VIRIAL  =         0.0000  VOLUME     =    825026.5729
                                                    Density    =         0.9364
 ------------------------------------------------------------------------------

      R M S  F L U C T U A T I O N S

 NSTEP =  1000000   TIME(PS) =    2000.000  TEMP(K) =     1.13  PRESS =     0.0
 Etot   =       315.8954  EKtot   =       174.7652  EPtot      =       256.3273
 BOND   =        26.9331  ANGLE   =        31.4997  DIHED      =        12.8303
 1-4 NB =         9.5459  1-4 EEL =        20.9178  VDWAALS    =       230.3495
 EELEC  =       372.2576  EHBOND  =         0.0000  RESTRAINT  =        62.2424
 EAMBER (non-restraint)  =       194.0849
 EKCMT  =         0.0000  VIRIAL  =         0.0000  VOLUME     =      1692.7915
                                                    Density    =         0.0019
 ------------------------------------------------------------------------------
