-------------------------------------------------------
          Amber 20 PMEMD                              2020
          -------------------------------------------------------

  [-O]verwriting output

File Assignments:

 Here is the input file:

 &cntrl
  imin = 0, nstlim = 1000000, dt = 0.001,
  irest = 1, ntx = 5, ig = -1,
  temp0 = 298.0,
  ntc = 2, ntf = 2, tol = 0.00001,
  ntwx = 10000, ntwe = 0, ntwr = 1000, ntpr = 1000,
  cut = 8.0, iwrap = 0,
  ntt =3,  gamma_ln=1.0, ntb = 2, ntp = 1,
  nscm = 0, barostat = 2,
  ntr=1, restraintmask=':1-688', restraint_wt=50.
  ioutfm=1, ntxo=2,
 /

Note: ig = -1. Setting random seed to   936115 based on wallclock time in
      microseconds.

--------------------------------------------------------------------------------
   1.  RESOURCE   USE:
--------------------------------------------------------------------------------

 getting box info from netcdf restart file
 NATOM  =   74830 NTYPES =      20 NBONH =   69088 MBONA  =    5677
 NTHETH =   12810 MTHETA =    7702 NPHIH =   25645 MPHIA  =   24796
 NHPARM =       0 NPARM  =       0 NNB   =  146740 NRES   =   22007
 NBONA  =    5677 NTHETA =    7702 NPHIA =   24796 NUMBND =      78
 NUMANG =     181 NPTRA  =     201 NATYP =      45 NPHB   =       0
 IFBOX  =       2 NMXRS  =      24 IFCAP =       0 NEXTRA =       0
 NCOPY  =       0

     BOX TYPE: TRUNCATED OCTAHEDRON

--------------------------------------------------------------------------------
   2.  CONTROL  DATA  FOR  THE  RUN
--------------------------------------------------------------------------------

default_name

General flags:
     imin    =       0, nmropt  =       0

Nature and format of input:
     ntx     =       5, irest   =       1, ntrx    =       1

Nature and format of output:
     ntxo    =       2, ntpr    =    1000, ntrx    =       1, ntwr    =    1000
     iwrap   =       0, ntwx    =   10000, ntwv    =       0, ntwe    =       0
     ioutfm  =       1, ntwprt  =       0, idecomp =       0, rbornstat=      0

Potential function:
     ntf     =       2, ntb     =       2, igb     =       0, nsnb    =      25
     ipol    =       0, gbsa    =       0, iesp    =       0
     dielc   =   1.00000, cut     =   8.00000, intdiel =   1.00000

Frozen or restrained atoms:
     ibelly  =       0, ntr     =       1
     restraint_wt =  50.00000

Molecular dynamics:
     nstlim  =   1000000, nscm    =         0, nrespa  =         1
     t       =   0.00000, dt      =   0.00100, vlimit  =  -1.00000

Langevin dynamics temperature regulation:
     ig      =  936115
     temp0   = 298.00000, tempi   =   0.00000, gamma_ln=   1.00000

Pressure regulation:
     ntp     =       1
     pres0   =   1.00000, comp    =  44.60000, taup    =   1.00000
     Monte-Carlo Barostat:
     mcbarint  =     100

SHAKE:
     ntc     =       2, jfastw  =       0
     tol     =   0.00001

Ewald parameters:
     verbose =       0, ew_type =       0, nbflag  =       1, use_pme =       1
     vdwmeth =       1, eedmeth =       1, netfrc  =       1
     Box X =  102.313   Box Y =  102.313   Box Z =  102.313
     Alpha =  109.471   Beta  =  109.471   Gamma =  109.471
     NFFT1 =  108       NFFT2 =  108       NFFT3 =  108
     Cutoff=    8.000   Tol   =0.100E-04
     Ewald Coefficient =  0.34864
     Interpolation order =    4

    LOADING THE CONSTRAINED ATOMS AS GROUPS

   5.  REFERENCE ATOM COORDINATES

  default_name
     Mask :1-688; matches 11203 atoms

--------------------------------------------------------------------------------
   3.  ATOMIC COORDINATES AND VELOCITIES
--------------------------------------------------------------------------------

default_name
 begin time read from input coords =  2000.000 ps

 Number of triangulated 3-point waters found:    21154

     Sum of charges from parm topology file =  -0.00000029
     Forcing neutrality...

--------------------------------------------------------------------------------
   4.  RESULTS
 NSTEP =     1000   TIME(PS) =    2001.000  TEMP(K) =   292.40  PRESS =     0.0
 Etot   =   -186602.7752  EKtot   =     45148.7148  EPtot      =   -231751.4900
 BOND   =      1599.5684  ANGLE   =      4501.8138  DIHED      =      8915.7733
 1-4 NB =      3005.1431  1-4 EEL =     28992.6458  VDWAALS    =     25061.0674
 EELEC  =   -308076.7810  EHBOND  =         0.0000  RESTRAINT  =      4249.2791
 EAMBER (non-restraint)  =   -236000.7691
 EKCMT  =         0.0000  VIRIAL  =         0.0000  VOLUME     =    824056.0519
                                                    Density    =         0.9375
 ------------------------------------------------------------------------------

      A V E R A G E S   O V E R    1000 S T E P S

 NSTEP =  1000000   TIME(PS) =    3000.000  TEMP(K) =   298.03  PRESS =     0.0
 Etot   =   -184743.0686  EKtot   =     46018.1793  EPtot      =   -230761.2479
 BOND   =      1681.7429  ANGLE   =      4756.1926  DIHED      =      8966.6528
 1-4 NB =      3048.5939  1-4 EEL =     28984.6531  VDWAALS    =     24803.7469
 EELEC  =   -307628.8015  EHBOND  =         0.0000  RESTRAINT  =      4625.9714
 EAMBER (non-restraint)  =   -235387.2194
 EKCMT  =         0.0000  VIRIAL  =         0.0000  VOLUME     =    812725.0852
                                                    Density    =         0.9506
 ------------------------------------------------------------------------------

      R M S  F L U C T U A T I O N S

 NSTEP =  1000000   TIME(PS) =    3000.000  TEMP(K) =     1.10  PRESS =     0.0
 Etot   =       302.5288  EKtot   =       169.2317  EPtot      =       238.3618
 BOND   =        30.7794  ANGLE   =        40.0235  DIHED      =        18.4253
 1-4 NB =        13.7516  1-4 EEL =        30.5947  VDWAALS    =       240.4222
 EELEC  =       383.6437  EHBOND  =         0.0000  RESTRAINT  =        46.5367
 EAMBER (non-restraint)  =       191.8251
 EKCMT  =         0.0000  VIRIAL  =         0.0000  VOLUME     =      1597.7297
                                                    Density    =         0.0019
 ------------------------------------------------------------------------------
