-------------------------------------------------------
          Amber 20 PMEMD                              2020
          -------------------------------------------------------

  [-O]verwriting output

File Assignments:

 Here is the input file:

 &cntrl
  imin = 0, nstlim = 1000000, dt = 0.001,
  irest = 1, ntx = 5, ig = -1,
  temp0 = 298.0,
  ntc = 2, ntf = 2, tol = 0.00001,
  ntwx = 10000, ntwe = 0, ntwr = 1000, ntpr = 1000,
  cut = 8.0, iwrap = 0,
  ntt =3, gamma_ln=1.0, ntb = 2, ntp = 1,
  nscm = 0, barostat = 2,
  ntr=1, restraintmask="@CA,N,C,C1,C2,C3,C4,C5,OC6,C7,C8,C9,C10,C11,C12,C13,C14
  restraint_wt=5.,
  ioutfm=1, ntxo=2,
 /

Note: ig = -1. Setting random seed to   283731 based on wallclock time in
      microseconds.

--------------------------------------------------------------------------------
   1.  RESOURCE   USE:
--------------------------------------------------------------------------------

 getting box info from netcdf restart file
 NATOM  =   74830 NTYPES =      20 NBONH =   69088 MBONA  =    5677
 NTHETH =   12810 MTHETA =    7702 NPHIH =   25645 MPHIA  =   24796
 NHPARM =       0 NPARM  =       0 NNB   =  146740 NRES   =   22007
 NBONA  =    5677 NTHETA =    7702 NPHIA =   24796 NUMBND =      78
 NUMANG =     181 NPTRA  =     201 NATYP =      45 NPHB   =       0
 IFBOX  =       2 NMXRS  =      24 IFCAP =       0 NEXTRA =       0
 NCOPY  =       0

     BOX TYPE: TRUNCATED OCTAHEDRON

--------------------------------------------------------------------------------
   2.  CONTROL  DATA  FOR  THE  RUN
--------------------------------------------------------------------------------

default_name

General flags:
     imin    =       0, nmropt  =       0

Nature and format of input:
     ntx     =       5, irest   =       1, ntrx    =       1

Nature and format of output:
     ntxo    =       2, ntpr    =    1000, ntrx    =       1, ntwr    =    1000
     iwrap   =       0, ntwx    =   10000, ntwv    =       0, ntwe    =       0
     ioutfm  =       1, ntwprt  =       0, idecomp =       0, rbornstat=      0

Potential function:
     ntf     =       2, ntb     =       2, igb     =       0, nsnb    =      25
     ipol    =       0, gbsa    =       0, iesp    =       0
     dielc   =   1.00000, cut     =   8.00000, intdiel =   1.00000

Frozen or restrained atoms:
     ibelly  =       0, ntr     =       1
     restraint_wt =   5.00000

Molecular dynamics:
     nstlim  =   1000000, nscm    =         0, nrespa  =         1
     t       =   0.00000, dt      =   0.00100, vlimit  =  -1.00000

Langevin dynamics temperature regulation:
     ig      =  283731
     temp0   = 298.00000, tempi   =   0.00000, gamma_ln=   1.00000

Pressure regulation:
     ntp     =       1
     pres0   =   1.00000, comp    =  44.60000, taup    =   1.00000
     Monte-Carlo Barostat:
     mcbarint  =     100

SHAKE:
     ntc     =       2, jfastw  =       0
     tol     =   0.00001

Ewald parameters:
     verbose =       0, ew_type =       0, nbflag  =       1, use_pme =       1
     vdwmeth =       1, eedmeth =       1, netfrc  =       1
     Box X =   99.247   Box Y =   99.247   Box Z =   99.247
     Alpha =  109.471   Beta  =  109.471   Gamma =  109.471
     NFFT1 =  100       NFFT2 =  100       NFFT3 =  100
     Cutoff=    8.000   Tol   =0.100E-04
     Ewald Coefficient =  0.34864
     Interpolation order =    4

    LOADING THE CONSTRAINED ATOMS AS GROUPS

   5.  REFERENCE ATOM COORDINATES

  default_name
     Mask @CA,N,C,C1,C2,C3,C4,C5,OC6,C7,C8,C9,C10,C11,C12,C13,C14,C15,C16,C17,C18,C19,C20,O1,O1A,O2A,O3A,O1B,O2B,PA,PB; matches  2092 atoms

--------------------------------------------------------------------------------
   3.  ATOMIC COORDINATES AND VELOCITIES
--------------------------------------------------------------------------------

default_name
 begin time read from input coords =  1000.000 ps

 Number of triangulated 3-point waters found:    21154

     Sum of charges from parm topology file =  -0.00000029
     Forcing neutrality...

--------------------------------------------------------------------------------
   4.  RESULTS
 NSTEP =     1000   TIME(PS) =    1001.000  TEMP(K) =   296.08  PRESS =     0.0
 Etot   =   -193162.5941  EKtot   =     45716.6250  EPtot      =   -238879.2191
 BOND   =      1993.0793  ANGLE   =      5853.8172  DIHED      =      9446.4629
 1-4 NB =      2684.3306  1-4 EEL =     28470.4275  VDWAALS    =     24146.7361
 EELEC  =   -311930.7369  EHBOND  =         0.0000  RESTRAINT  =       456.6642
 EAMBER (non-restraint)  =   -239335.8833
 EKCMT  =         0.0000  VIRIAL  =         0.0000  VOLUME     =    752549.1452
                                                    Density    =         1.0266
 ------------------------------------------------------------------------------

      A V E R A G E S   O V E R    1000 S T E P S

 NSTEP =  1000000   TIME(PS) =    2000.000  TEMP(K) =   297.98  PRESS =     0.0
 Etot   =   -193557.2102  EKtot   =     46009.6859  EPtot      =   -239566.8961
 BOND   =      2010.8633  ANGLE   =      5812.3565  DIHED      =      9476.3401
 1-4 NB =      2688.9236  1-4 EEL =     28459.5656  VDWAALS    =     24471.4324
 EELEC  =   -313028.5871  EHBOND  =         0.0000  RESTRAINT  =       542.2094
 EAMBER (non-restraint)  =   -240109.1056
 EKCMT  =         0.0000  VIRIAL  =         0.0000  VOLUME     =    747761.5258
                                                    Density    =         1.0332
 ------------------------------------------------------------------------------

      R M S  F L U C T U A T I O N S

 NSTEP =  1000000   TIME(PS) =    2000.000  TEMP(K) =     1.04  PRESS =     0.0
 Etot   =       285.5031  EKtot   =       161.0329  EPtot      =       238.5468
 BOND   =        37.7219  ANGLE   =        56.8642  DIHED      =        30.7065
 1-4 NB =        21.5472  1-4 EEL =        51.9621  VDWAALS    =       228.4413
 EELEC  =       364.0135  EHBOND  =         0.0000  RESTRAINT  =        16.2204
 EAMBER (non-restraint)  =       222.3264
 EKCMT  =         0.0000  VIRIAL  =         0.0000  VOLUME     =      1334.8128
                                                    Density    =         0.0018
 ------------------------------------------------------------------------------
