-------------------------------------------------------
          Amber 20 PMEMD                              2020
          -------------------------------------------------------

  [-O]verwriting output

File Assignments:

 Here is the input file:

 &cntrl
  imin = 0, nstlim = 1000000, dt = 0.001,
  irest = 1, ntx = 5, ig = -1,
  temp0 = 298.0,
  ntc = 2, ntf = 2, tol = 0.00001,
  ntwx = 10000, ntwe = 0, ntwr = 1000, ntpr = 1000,
  cut = 8.0, iwrap = 0,
  ntt =3,  gamma_ln=1.0, ntb = 2, ntp = 1,
  nscm = 0, barostat = 2,
  ntr=1, restraintmask=':1-686', restraint_wt=50.
  ioutfm=1, ntxo=2,
 /

Note: ig = -1. Setting random seed to   329725 based on wallclock time in
      microseconds.

--------------------------------------------------------------------------------
   1.  RESOURCE   USE:
--------------------------------------------------------------------------------

 getting box info from netcdf restart file
 NATOM  =   74847 NTYPES =      20 NBONH =   69110 MBONA  =    5680
 NTHETH =   12882 MTHETA =    7698 NPHIH =   25815 MPHIA  =   24804
 NHPARM =       0 NPARM  =       0 NNB   =  146940 NRES   =   21996
 NBONA  =    5680 NTHETA =    7698 NPHIA =   24804 NUMBND =      78
 NUMANG =     177 NPTRA  =     200 NATYP =      45 NPHB   =       0
 IFBOX  =       2 NMXRS  =      62 IFCAP =       0 NEXTRA =       0
 NCOPY  =       0

     BOX TYPE: TRUNCATED OCTAHEDRON

--------------------------------------------------------------------------------
   2.  CONTROL  DATA  FOR  THE  RUN
--------------------------------------------------------------------------------

default_name

General flags:
     imin    =       0, nmropt  =       0

Nature and format of input:
     ntx     =       5, irest   =       1, ntrx    =       1

Nature and format of output:
     ntxo    =       2, ntpr    =    1000, ntrx    =       1, ntwr    =    1000
     iwrap   =       0, ntwx    =   10000, ntwv    =       0, ntwe    =       0
     ioutfm  =       1, ntwprt  =       0, idecomp =       0, rbornstat=      0

Potential function:
     ntf     =       2, ntb     =       2, igb     =       0, nsnb    =      25
     ipol    =       0, gbsa    =       0, iesp    =       0
     dielc   =   1.00000, cut     =   8.00000, intdiel =   1.00000

Frozen or restrained atoms:
     ibelly  =       0, ntr     =       1
     restraint_wt =  50.00000

Molecular dynamics:
     nstlim  =   1000000, nscm    =         0, nrespa  =         1
     t       =   0.00000, dt      =   0.00100, vlimit  =  -1.00000

Langevin dynamics temperature regulation:
     ig      =  329725
     temp0   = 298.00000, tempi   =   0.00000, gamma_ln=   1.00000

Pressure regulation:
     ntp     =       1
     pres0   =   1.00000, comp    =  44.60000, taup    =   1.00000
     Monte-Carlo Barostat:
     mcbarint  =     100

SHAKE:
     ntc     =       2, jfastw  =       0
     tol     =   0.00001

Ewald parameters:
     verbose =       0, ew_type =       0, nbflag  =       1, use_pme =       1
     vdwmeth =       1, eedmeth =       1, netfrc  =       1
     Box X =  102.326   Box Y =  102.326   Box Z =  102.326
     Alpha =  109.471   Beta  =  109.471   Gamma =  109.471
     NFFT1 =  108       NFFT2 =  108       NFFT3 =  108
     Cutoff=    8.000   Tol   =0.100E-04
     Ewald Coefficient =  0.34864
     Interpolation order =    4

    LOADING THE CONSTRAINED ATOMS AS GROUPS

   5.  REFERENCE ATOM COORDINATES

  default_name
     Mask :1-686; matches 11235 atoms

--------------------------------------------------------------------------------
   3.  ATOMIC COORDINATES AND VELOCITIES
--------------------------------------------------------------------------------

default_name
 begin time read from input coords =  2000.000 ps

 Number of triangulated 3-point waters found:    21151

     Sum of charges from parm topology file =  -0.00000029
     Forcing neutrality...

--------------------------------------------------------------------------------
   4.  RESULTS
 NSTEP =     1000   TIME(PS) =    2001.000  TEMP(K) =   293.04  PRESS =     0.0
 Etot   =   -185837.1965  EKtot   =     45255.7930  EPtot      =   -231092.9894
 BOND   =      1580.0483  ANGLE   =      4405.1081  DIHED      =      9136.5503
 1-4 NB =      3046.2723  1-4 EEL =     29043.3594  VDWAALS    =     24271.7421
 EELEC  =   -306756.5709  EHBOND  =         0.0000  RESTRAINT  =      4180.5009
 EAMBER (non-restraint)  =   -235273.4904
 EKCMT  =         0.0000  VIRIAL  =         0.0000  VOLUME     =    824059.8641
                                                    Density    =         0.9370
 ------------------------------------------------------------------------------

      A V E R A G E S   O V E R    1000 S T E P S

 NSTEP =  1000000   TIME(PS) =    3000.000  TEMP(K) =   298.12  PRESS =     0.0
 Etot   =   -183877.5671  EKtot   =     46040.1496  EPtot      =   -229917.7166
 BOND   =      1663.9607  ANGLE   =      4644.8748  DIHED      =      9172.3161
 1-4 NB =      3069.7295  1-4 EEL =     29050.9186  VDWAALS    =     24523.0611
 EELEC  =   -306576.1018  EHBOND  =         0.0000  RESTRAINT  =      4533.5244
 EAMBER (non-restraint)  =   -234451.2411
 EKCMT  =         0.0000  VIRIAL  =         0.0000  VOLUME     =    813168.0337
                                                    Density    =         0.9495
 ------------------------------------------------------------------------------

      R M S  F L U C T U A T I O N S

 NSTEP =  1000000   TIME(PS) =    3000.000  TEMP(K) =     1.11  PRESS =     0.0
 Etot   =       304.4113  EKtot   =       171.7230  EPtot      =       250.2024
 BOND   =        31.3980  ANGLE   =        41.9881  DIHED      =        18.8125
 1-4 NB =        14.0591  1-4 EEL =        31.1686  VDWAALS    =       224.7254
 EELEC  =       377.6848  EHBOND  =         0.0000  RESTRAINT  =        47.5357
 EAMBER (non-restraint)  =       202.6667
 EKCMT  =         0.0000  VIRIAL  =         0.0000  VOLUME     =      1662.4613
                                                    Density    =         0.0019
 ------------------------------------------------------------------------------
