-------------------------------------------------------
          Amber 20 PMEMD                              2020
          -------------------------------------------------------

  [-O]verwriting output

File Assignments:

 Here is the input file:

 &cntrl
  imin = 0, nstlim = 1000000, dt = 0.001,
  irest = 1, ntx = 5, ig = -1,
  temp0 = 298.0,
  ntc = 2, ntf = 2, tol = 0.00001,
  ntwx = 10000, ntwe = 0, ntwr = 1000, ntpr = 1000,
  cut = 8.0, iwrap = 0,
  ntt =3, gamma_ln=1.0, ntb = 2, ntp = 1,
  nscm = 0, barostat = 2,
  ntr=1, restraintmask="@CA,N,C,C1,C2,C3,C4,C5,C6,C7,C8,C9,C10,C11,C12,C13,C14,
  restraint_wt=.5,
  ioutfm=1, ntxo=2,
 /

Note: ig = -1. Setting random seed to   445932 based on wallclock time in
      microseconds.

--------------------------------------------------------------------------------
   1.  RESOURCE   USE:
--------------------------------------------------------------------------------

 getting box info from netcdf restart file
 NATOM  =   74847 NTYPES =      20 NBONH =   69110 MBONA  =    5680
 NTHETH =   12882 MTHETA =    7698 NPHIH =   25815 MPHIA  =   24804
 NHPARM =       0 NPARM  =       0 NNB   =  146940 NRES   =   21996
 NBONA  =    5680 NTHETA =    7698 NPHIA =   24804 NUMBND =      78
 NUMANG =     177 NPTRA  =     200 NATYP =      45 NPHB   =       0
 IFBOX  =       2 NMXRS  =      62 IFCAP =       0 NEXTRA =       0
 NCOPY  =       0

     BOX TYPE: TRUNCATED OCTAHEDRON

--------------------------------------------------------------------------------
   2.  CONTROL  DATA  FOR  THE  RUN
--------------------------------------------------------------------------------

default_name

General flags:
     imin    =       0, nmropt  =       0

Nature and format of input:
     ntx     =       5, irest   =       1, ntrx    =       1

Nature and format of output:
     ntxo    =       2, ntpr    =    1000, ntrx    =       1, ntwr    =    1000
     iwrap   =       0, ntwx    =   10000, ntwv    =       0, ntwe    =       0
     ioutfm  =       1, ntwprt  =       0, idecomp =       0, rbornstat=      0

Potential function:
     ntf     =       2, ntb     =       2, igb     =       0, nsnb    =      25
     ipol    =       0, gbsa    =       0, iesp    =       0
     dielc   =   1.00000, cut     =   8.00000, intdiel =   1.00000

Frozen or restrained atoms:
     ibelly  =       0, ntr     =       1
     restraint_wt =   0.50000

Molecular dynamics:
     nstlim  =   1000000, nscm    =         0, nrespa  =         1
     t       =   0.00000, dt      =   0.00100, vlimit  =  -1.00000

Langevin dynamics temperature regulation:
     ig      =  445932
     temp0   = 298.00000, tempi   =   0.00000, gamma_ln=   1.00000

Pressure regulation:
     ntp     =       1
     pres0   =   1.00000, comp    =  44.60000, taup    =   1.00000
     Monte-Carlo Barostat:
     mcbarint  =     100

SHAKE:
     ntc     =       2, jfastw  =       0
     tol     =   0.00001

Ewald parameters:
     verbose =       0, ew_type =       0, nbflag  =       1, use_pme =       1
     vdwmeth =       1, eedmeth =       1, netfrc  =       1
     Box X =   99.074   Box Y =   99.074   Box Z =   99.074
     Alpha =  109.471   Beta  =  109.471   Gamma =  109.471
     NFFT1 =  100       NFFT2 =  100       NFFT3 =  100
     Cutoff=    8.000   Tol   =0.100E-04
     Ewald Coefficient =  0.34864
     Interpolation order =    4

    LOADING THE CONSTRAINED ATOMS AS GROUPS

   5.  REFERENCE ATOM COORDINATES

  default_name
     Mask @CA,N,C,C1,C2,C3,C4,C5,C6,C7,C8,C9,C10,C11,C12,C13,C14,C15,C16,C17,C18,C19,C20,O1,O1A,O2A,O3A,O1B,O2B,PA,PB; matches  2096 atoms

--------------------------------------------------------------------------------
   3.  ATOMIC COORDINATES AND VELOCITIES
--------------------------------------------------------------------------------

default_name
 begin time read from input coords =  2000.000 ps

 Number of triangulated 3-point waters found:    21151

     Sum of charges from parm topology file =  -0.00000029
     Forcing neutrality...

--------------------------------------------------------------------------------
   4.  RESULTS
 NSTEP =     1000   TIME(PS) =    2001.000  TEMP(K) =   297.56  PRESS =     0.0
 Etot   =   -192145.0558  EKtot   =     45953.8945  EPtot      =   -238098.9503
 BOND   =      2058.9559  ANGLE   =      5929.6412  DIHED      =      9436.2105
 1-4 NB =      2645.7415  1-4 EEL =     28419.4711  VDWAALS    =     24585.5606
 EELEC  =   -311328.1705  EHBOND  =         0.0000  RESTRAINT  =       153.6394
 EAMBER (non-restraint)  =   -238252.5897
 EKCMT  =         0.0000  VIRIAL  =         0.0000  VOLUME     =    748072.4142
                                                    Density    =         1.0321
 ------------------------------------------------------------------------------

      A V E R A G E S   O V E R    1000 S T E P S

 NSTEP =  1000000   TIME(PS) =    3000.000  TEMP(K) =   298.08  PRESS =     0.0
 Etot   =   -192800.2401  EKtot   =     46033.8124  EPtot      =   -238834.0524
 BOND   =      2032.9112  ANGLE   =      5825.9111  DIHED      =      9458.7010
 1-4 NB =      2665.3679  1-4 EEL =     28399.6810  VDWAALS    =     24453.9144
 EELEC  =   -311882.9225  EHBOND  =         0.0000  RESTRAINT  =       212.3835
 EAMBER (non-restraint)  =   -239046.4360
 EKCMT  =         0.0000  VIRIAL  =         0.0000  VOLUME     =    744064.4814
                                                    Density    =         1.0377
 ------------------------------------------------------------------------------

      R M S  F L U C T U A T I O N S

 NSTEP =  1000000   TIME(PS) =    3000.000  TEMP(K) =     1.08  PRESS =     0.0
 Etot   =       294.0283  EKtot   =       167.2899  EPtot      =       240.9304
 BOND   =        36.7010  ANGLE   =        58.2626  DIHED      =        31.5334
 1-4 NB =        20.6658  1-4 EEL =        54.5769  VDWAALS    =       230.7614
 EELEC  =       372.2814  EHBOND  =         0.0000  RESTRAINT  =        11.1896
 EAMBER (non-restraint)  =       229.7409
 EKCMT  =         0.0000  VIRIAL  =         0.0000  VOLUME     =      1140.0178
                                                    Density    =         0.0016
 ------------------------------------------------------------------------------
