-------------------------------------------------------
          Amber 20 PMEMD                              2020
          -------------------------------------------------------

  [-O]verwriting output

File Assignments:

 Here is the input file:

 &cntrl
  imin = 0, nstlim = 1000000, dt = 0.001,
  irest = 1, ntx = 5, ig = -1,
  temp0 = 298.0,
  ntc = 2, ntf = 2, tol = 0.00001,
  ntwx = 10000, ntwe = 0, ntwr = 1000, ntpr = 1000,
  cut = 8.0, iwrap = 0,
  ntt =3, gamma_ln=1.0, ntb = 2, ntp = 1, barostat = 2,
  nscm = 0,
  ntr=1, restraintmask=':1-688', restraint_wt=200.
  ioutfm=1, ntxo=2,
 /

Note: ig = -1. Setting random seed to   851457 based on wallclock time in
      microseconds.

--------------------------------------------------------------------------------
   1.  RESOURCE   USE:
--------------------------------------------------------------------------------

 getting box info from netcdf restart file
 NATOM  =   74601 NTYPES =      20 NBONH =   68849 MBONA  =    5687
 NTHETH =   12838 MTHETA =    7712 NPHIH =   25721 MPHIA  =   24824
 NHPARM =       0 NPARM  =       0 NNB   =  146524 NRES   =   21920
 NBONA  =    5687 NTHETA =    7712 NPHIA =   24824 NUMBND =      80
 NUMANG =     184 NPTRA  =     212 NATYP =      47 NPHB   =       0
 IFBOX  =       2 NMXRS  =      24 IFCAP =       0 NEXTRA =       0
 NCOPY  =       0

     BOX TYPE: TRUNCATED OCTAHEDRON

--------------------------------------------------------------------------------
   2.  CONTROL  DATA  FOR  THE  RUN
--------------------------------------------------------------------------------

default_name

General flags:
     imin    =       0, nmropt  =       0

Nature and format of input:
     ntx     =       5, irest   =       1, ntrx    =       1

Nature and format of output:
     ntxo    =       2, ntpr    =    1000, ntrx    =       1, ntwr    =    1000
     iwrap   =       0, ntwx    =   10000, ntwv    =       0, ntwe    =       0
     ioutfm  =       1, ntwprt  =       0, idecomp =       0, rbornstat=      0

Potential function:
     ntf     =       2, ntb     =       2, igb     =       0, nsnb    =      25
     ipol    =       0, gbsa    =       0, iesp    =       0
     dielc   =   1.00000, cut     =   8.00000, intdiel =   1.00000

Frozen or restrained atoms:
     ibelly  =       0, ntr     =       1
     restraint_wt = 200.00000

Molecular dynamics:
     nstlim  =   1000000, nscm    =         0, nrespa  =         1
     t       =   0.00000, dt      =   0.00100, vlimit  =  -1.00000

Langevin dynamics temperature regulation:
     ig      =  851457
     temp0   = 298.00000, tempi   =   0.00000, gamma_ln=   1.00000

Pressure regulation:
     ntp     =       1
     pres0   =   1.00000, comp    =  44.60000, taup    =   1.00000
     Monte-Carlo Barostat:
     mcbarint  =     100

SHAKE:
     ntc     =       2, jfastw  =       0
     tol     =   0.00001

Ewald parameters:
     verbose =       0, ew_type =       0, nbflag  =       1, use_pme =       1
     vdwmeth =       1, eedmeth =       1, netfrc  =       1
     Box X =  103.081   Box Y =  103.081   Box Z =  103.081
     Alpha =  109.471   Beta  =  109.471   Gamma =  109.471
     NFFT1 =  108       NFFT2 =  108       NFFT3 =  108
     Cutoff=    8.000   Tol   =0.100E-04
     Ewald Coefficient =  0.34864
     Interpolation order =    4

    LOADING THE CONSTRAINED ATOMS AS GROUPS

   5.  REFERENCE ATOM COORDINATES

  default_name
     Mask :1-688; matches 11231 atoms

--------------------------------------------------------------------------------
   3.  ATOMIC COORDINATES AND VELOCITIES
--------------------------------------------------------------------------------

default_name
 begin time read from input coords =  1000.000 ps

 Number of triangulated 3-point waters found:    21069

     Sum of charges from parm topology file =  -0.00000029
     Forcing neutrality...

--------------------------------------------------------------------------------
   4.  RESULTS
 NSTEP =     1000   TIME(PS) =    1001.000  TEMP(K) =   291.33  PRESS =     0.0
 Etot   =   -184841.5326  EKtot   =     44853.8320  EPtot      =   -229695.3646
 BOND   =      1399.5578  ANGLE   =      3802.8571  DIHED      =      8755.8438
 1-4 NB =      3110.2346  1-4 EEL =     28670.6144  VDWAALS    =     25535.0789
 EELEC  =   -306582.0309  EHBOND  =         0.0000  RESTRAINT  =      5612.4797
 EAMBER (non-restraint)  =   -235307.8443
 EKCMT  =         0.0000  VIRIAL  =         0.0000  VOLUME     =    840577.7567
                                                    Density    =         0.9164
 ------------------------------------------------------------------------------

      A V E R A G E S   O V E R    1000 S T E P S

 NSTEP =  1000000   TIME(PS) =    2000.000  TEMP(K) =   298.31  PRESS =     0.0
 Etot   =   -182300.3855  EKtot   =     45928.1027  EPtot      =   -228228.4882
 BOND   =      1488.3603  ANGLE   =      4047.6073  DIHED      =      8777.2123
 1-4 NB =      3122.4983  1-4 EEL =     28672.4491  VDWAALS    =     25153.1502
 EELEC  =   -305835.8527  EHBOND  =         0.0000  RESTRAINT  =      6346.0870
 EAMBER (non-restraint)  =   -234574.5752
 EKCMT  =         0.0000  VIRIAL  =         0.0000  VOLUME     =    822308.2895
                                                    Density    =         0.9368
 ------------------------------------------------------------------------------

      R M S  F L U C T U A T I O N S

 NSTEP =  1000000   TIME(PS) =    2000.000  TEMP(K) =     1.11  PRESS =     0.0
 Etot   =       315.9438  EKtot   =       170.2871  EPtot      =       248.1856
 BOND   =        26.5376  ANGLE   =        32.4844  DIHED      =        12.8057
 1-4 NB =         9.6011  1-4 EEL =        21.4889  VDWAALS    =       241.4325
 EELEC  =       386.8021  EHBOND  =         0.0000  RESTRAINT  =        62.7947
 EAMBER (non-restraint)  =       185.3908
 EKCMT  =         0.0000  VIRIAL  =         0.0000  VOLUME     =      1895.3868
                                                    Density    =         0.0021
 ------------------------------------------------------------------------------
