-------------------------------------------------------
          Amber 20 PMEMD                              2020
          -------------------------------------------------------

  [-O]verwriting output

File Assignments:

 Here is the input file:

 &cntrl
  imin = 0, nstlim = 1000000, dt = 0.001,
  irest = 1, ntx = 5, ig = -1,
  temp0 = 298.0,
  ntc = 2, ntf = 2, tol = 0.00001,
  ntwx = 10000, ntwe = 0, ntwr = 1000, ntpr = 1000,
  cut = 8.0, iwrap = 0,
  ntt =3,  gamma_ln=1.0, ntb = 2, ntp = 1,
  nscm = 0, barostat = 2,
  ntr=1, restraintmask=':1-688', restraint_wt=50.
  ioutfm=1, ntxo=2,
 /

Note: ig = -1. Setting random seed to   993509 based on wallclock time in
      microseconds.

--------------------------------------------------------------------------------
   1.  RESOURCE   USE:
--------------------------------------------------------------------------------

 getting box info from netcdf restart file
 NATOM  =   74601 NTYPES =      20 NBONH =   68849 MBONA  =    5687
 NTHETH =   12838 MTHETA =    7712 NPHIH =   25721 MPHIA  =   24824
 NHPARM =       0 NPARM  =       0 NNB   =  146524 NRES   =   21920
 NBONA  =    5687 NTHETA =    7712 NPHIA =   24824 NUMBND =      80
 NUMANG =     184 NPTRA  =     212 NATYP =      47 NPHB   =       0
 IFBOX  =       2 NMXRS  =      24 IFCAP =       0 NEXTRA =       0
 NCOPY  =       0

     BOX TYPE: TRUNCATED OCTAHEDRON

--------------------------------------------------------------------------------
   2.  CONTROL  DATA  FOR  THE  RUN
--------------------------------------------------------------------------------

default_name

General flags:
     imin    =       0, nmropt  =       0

Nature and format of input:
     ntx     =       5, irest   =       1, ntrx    =       1

Nature and format of output:
     ntxo    =       2, ntpr    =    1000, ntrx    =       1, ntwr    =    1000
     iwrap   =       0, ntwx    =   10000, ntwv    =       0, ntwe    =       0
     ioutfm  =       1, ntwprt  =       0, idecomp =       0, rbornstat=      0

Potential function:
     ntf     =       2, ntb     =       2, igb     =       0, nsnb    =      25
     ipol    =       0, gbsa    =       0, iesp    =       0
     dielc   =   1.00000, cut     =   8.00000, intdiel =   1.00000

Frozen or restrained atoms:
     ibelly  =       0, ntr     =       1
     restraint_wt =  50.00000

Molecular dynamics:
     nstlim  =   1000000, nscm    =         0, nrespa  =         1
     t       =   0.00000, dt      =   0.00100, vlimit  =  -1.00000

Langevin dynamics temperature regulation:
     ig      =  993509
     temp0   = 298.00000, tempi   =   0.00000, gamma_ln=   1.00000

Pressure regulation:
     ntp     =       1
     pres0   =   1.00000, comp    =  44.60000, taup    =   1.00000
     Monte-Carlo Barostat:
     mcbarint  =     100

SHAKE:
     ntc     =       2, jfastw  =       0
     tol     =   0.00001

Ewald parameters:
     verbose =       0, ew_type =       0, nbflag  =       1, use_pme =       1
     vdwmeth =       1, eedmeth =       1, netfrc  =       1
     Box X =  102.330   Box Y =  102.330   Box Z =  102.330
     Alpha =  109.471   Beta  =  109.471   Gamma =  109.471
     NFFT1 =  108       NFFT2 =  108       NFFT3 =  108
     Cutoff=    8.000   Tol   =0.100E-04
     Ewald Coefficient =  0.34864
     Interpolation order =    4

    LOADING THE CONSTRAINED ATOMS AS GROUPS

   5.  REFERENCE ATOM COORDINATES

  default_name
     Mask :1-688; matches 11231 atoms

--------------------------------------------------------------------------------
   3.  ATOMIC COORDINATES AND VELOCITIES
--------------------------------------------------------------------------------

default_name
 begin time read from input coords =  2000.000 ps

 Number of triangulated 3-point waters found:    21069

     Sum of charges from parm topology file =  -0.00000029
     Forcing neutrality...

--------------------------------------------------------------------------------
   4.  RESULTS
 NSTEP =     1000   TIME(PS) =    2001.000  TEMP(K) =   291.17  PRESS =     0.0
 Etot   =   -186336.9808  EKtot   =     44829.4570  EPtot      =   -231166.4378
 BOND   =      1523.2355  ANGLE   =      4538.8681  DIHED      =      8914.6947
 1-4 NB =      3040.5499  1-4 EEL =     28474.0285  VDWAALS    =     24807.1430
 EELEC  =   -306746.4412  EHBOND  =         0.0000  RESTRAINT  =      4281.4837
 EAMBER (non-restraint)  =   -235447.9215
 EKCMT  =         0.0000  VIRIAL  =         0.0000  VOLUME     =    822890.4163
                                                    Density    =         0.9361
 ------------------------------------------------------------------------------

      A V E R A G E S   O V E R    1000 S T E P S

 NSTEP =  1000000   TIME(PS) =    3000.000  TEMP(K) =   298.09  PRESS =     0.0
 Etot   =   -184158.2030  EKtot   =     45895.0507  EPtot      =   -230053.2538
 BOND   =      1689.9874  ANGLE   =      4779.5136  DIHED      =      8960.0354
 1-4 NB =      3063.6274  1-4 EEL =     28468.7202  VDWAALS    =     24699.7071
 EELEC  =   -306356.5203  EHBOND  =         0.0000  RESTRAINT  =      4641.6754
 EAMBER (non-restraint)  =   -234694.9292
 EKCMT  =         0.0000  VIRIAL  =         0.0000  VOLUME     =    811231.9848
                                                    Density    =         0.9496
 ------------------------------------------------------------------------------

      R M S  F L U C T U A T I O N S

 NSTEP =  1000000   TIME(PS) =    3000.000  TEMP(K) =     1.05  PRESS =     0.0
 Etot   =       297.4005  EKtot   =       161.2699  EPtot      =       246.4764
 BOND   =        31.5323  ANGLE   =        42.2757  DIHED      =        18.7617
 1-4 NB =        13.4498  1-4 EEL =        31.7685  VDWAALS    =       224.5055
 EELEC  =       371.4610  EHBOND  =         0.0000  RESTRAINT  =        47.7495
 EAMBER (non-restraint)  =       198.7269
 EKCMT  =         0.0000  VIRIAL  =         0.0000  VOLUME     =      1605.4679
                                                    Density    =         0.0019
 ------------------------------------------------------------------------------
