-------------------------------------------------------
          Amber 20 PMEMD                              2020
          -------------------------------------------------------

  [-O]verwriting output

File Assignments:

 Here is the input file:

 &cntrl
  imin = 0, nstlim = 1000000, dt = 0.001,
  irest = 1, ntx = 5, ig = -1,
  temp0 = 298.0,
  ntc = 2, ntf = 2, tol = 0.00001,
  ntwx = 10000, ntwe = 0, ntwr = 1000, ntpr = 1000,
  cut = 8.0, iwrap = 0,
  ntt =3, gamma_ln=1.0, ntb = 2, ntp = 1,
  nscm = 1000, barostat = 2,
  ioutfm=1, ntxo=2,
 /

Note: ig = -1. Setting random seed to   660483 based on wallclock time in
      microseconds.

--------------------------------------------------------------------------------
   1.  RESOURCE   USE:
--------------------------------------------------------------------------------

 getting box info from netcdf restart file
 NATOM  =   74601 NTYPES =      20 NBONH =   68849 MBONA  =    5687
 NTHETH =   12838 MTHETA =    7712 NPHIH =   25721 MPHIA  =   24824
 NHPARM =       0 NPARM  =       0 NNB   =  146524 NRES   =   21920
 NBONA  =    5687 NTHETA =    7712 NPHIA =   24824 NUMBND =      80
 NUMANG =     184 NPTRA  =     212 NATYP =      47 NPHB   =       0
 IFBOX  =       2 NMXRS  =      24 IFCAP =       0 NEXTRA =       0
 NCOPY  =       0

     BOX TYPE: TRUNCATED OCTAHEDRON

--------------------------------------------------------------------------------
   2.  CONTROL  DATA  FOR  THE  RUN
--------------------------------------------------------------------------------

default_name

General flags:
     imin    =       0, nmropt  =       0

Nature and format of input:
     ntx     =       5, irest   =       1, ntrx    =       1

Nature and format of output:
     ntxo    =       2, ntpr    =    1000, ntrx    =       1, ntwr    =    1000
     iwrap   =       0, ntwx    =   10000, ntwv    =       0, ntwe    =       0
     ioutfm  =       1, ntwprt  =       0, idecomp =       0, rbornstat=      0

Potential function:
     ntf     =       2, ntb     =       2, igb     =       0, nsnb    =      25
     ipol    =       0, gbsa    =       0, iesp    =       0
     dielc   =   1.00000, cut     =   8.00000, intdiel =   1.00000

Frozen or restrained atoms:
     ibelly  =       0, ntr     =       0

Molecular dynamics:
     nstlim  =   1000000, nscm    =      1000, nrespa  =         1
     t       =   0.00000, dt      =   0.00100, vlimit  =  -1.00000

Langevin dynamics temperature regulation:
     ig      =  660483
     temp0   = 298.00000, tempi   =   0.00000, gamma_ln=   1.00000

Pressure regulation:
     ntp     =       1
     pres0   =   1.00000, comp    =  44.60000, taup    =   1.00000
     Monte-Carlo Barostat:
     mcbarint  =     100

SHAKE:
     ntc     =       2, jfastw  =       0
     tol     =   0.00001

Ewald parameters:
     verbose =       0, ew_type =       0, nbflag  =       1, use_pme =       1
     vdwmeth =       1, eedmeth =       1, netfrc  =       1
     Box X =   98.869   Box Y =   98.869   Box Z =   98.869
     Alpha =  109.471   Beta  =  109.471   Gamma =  109.471
     NFFT1 =  100       NFFT2 =  100       NFFT3 =  100
     Cutoff=    8.000   Tol   =0.100E-04
     Ewald Coefficient =  0.34864
     Interpolation order =    4

--------------------------------------------------------------------------------
   3.  ATOMIC COORDINATES AND VELOCITIES
--------------------------------------------------------------------------------

default_name
 begin time read from input coords =  3000.000 ps

 Number of triangulated 3-point waters found:    21069

     Sum of charges from parm topology file =  -0.00000029
     Forcing neutrality...

--------------------------------------------------------------------------------
   4.  RESULTS
 NSTEP =     1000   TIME(PS) =    3001.000  TEMP(K) =   296.21  PRESS =     0.0
 Etot   =   -194450.9145  EKtot   =     45605.5938  EPtot      =   -240056.5082
 BOND   =      2062.1164  ANGLE   =      5867.9854  DIHED      =      9345.8298
 1-4 NB =      2669.9580  1-4 EEL =     27864.0390  VDWAALS    =     24458.7375
 EELEC  =   -312325.1743  EHBOND  =         0.0000  RESTRAINT  =         0.0000
 EKCMT  =         0.0000  VIRIAL  =         0.0000  VOLUME     =    743969.2928
                                                    Density    =         1.0354
 ------------------------------------------------------------------------------

      A V E R A G E S   O V E R    1000 S T E P S

 NSTEP =  1000000   TIME(PS) =    4000.000  TEMP(K) =   298.04  PRESS =     0.0
 Etot   =   -194758.7556  EKtot   =     45887.4628  EPtot      =   -240646.2184
 BOND   =      2057.4588  ANGLE   =      5844.8362  DIHED      =      9381.2082
 1-4 NB =      2637.5166  1-4 EEL =     27808.2912  VDWAALS    =     24571.0030
 EELEC  =   -312946.5322  EHBOND  =         0.0000  RESTRAINT  =         0.0000
 EKCMT  =         0.0000  VIRIAL  =         0.0000  VOLUME     =    739028.4775
                                                    Density    =         1.0423
 ------------------------------------------------------------------------------

      R M S  F L U C T U A T I O N S

 NSTEP =  1000000   TIME(PS) =    4000.000  TEMP(K) =     1.08  PRESS =     0.0
 Etot   =       281.8172  EKtot   =       165.8657  EPtot      =       234.0762
 BOND   =        38.6379  ANGLE   =        56.7781  DIHED      =        30.9136
 1-4 NB =        20.9887  1-4 EEL =        57.3007  VDWAALS    =       231.6065
 EELEC  =       359.4652  EHBOND  =         0.0000  RESTRAINT  =         0.0000
 EKCMT  =         0.0000  VIRIAL  =         0.0000  VOLUME     =      1361.7196
                                                    Density    =         0.0019
 ------------------------------------------------------------------------------
