-------------------------------------------------------
          Amber 20 PMEMD                              2020
          -------------------------------------------------------

  [-O]verwriting output

File Assignments:

 Here is the input file:

 &cntrl
  imin = 0, nstlim = 1000000, dt = 0.001,
  irest = 1, ntx = 5, ig = -1,
  temp0 = 298.0,
  ntc = 2, ntf = 2, tol = 0.00001,
  ntwx = 10000, ntwe = 0, ntwr = 1000, ntpr = 1000,
  cut = 8.0, iwrap = 0,
  ntt =3, gamma_ln=1.0, ntb = 2, ntp = 1, barostat = 2,
  nscm = 0,
  ntr=1, restraintmask=':1-688', restraint_wt=200.
  ioutfm=1, ntxo=2,
 /

Note: ig = -1. Setting random seed to   879619 based on wallclock time in
      microseconds.

--------------------------------------------------------------------------------
   1.  RESOURCE   USE:
--------------------------------------------------------------------------------

 getting box info from netcdf restart file
 NATOM  =   74816 NTYPES =      20 NBONH =   69059 MBONA  =    5688
 NTHETH =   12826 MTHETA =    7714 NPHIH =   25719 MPHIA  =   24778
 NHPARM =       0 NPARM  =       0 NNB   =  146768 NRES   =   21999
 NBONA  =    5688 NTHETA =    7714 NPHIA =   24778 NUMBND =      80
 NUMANG =     183 NPTRA  =     212 NATYP =      47 NPHB   =       0
 IFBOX  =       2 NMXRS  =      49 IFCAP =       0 NEXTRA =       0
 NCOPY  =       0

     BOX TYPE: TRUNCATED OCTAHEDRON

--------------------------------------------------------------------------------
   2.  CONTROL  DATA  FOR  THE  RUN
--------------------------------------------------------------------------------

default_name

General flags:
     imin    =       0, nmropt  =       0

Nature and format of input:
     ntx     =       5, irest   =       1, ntrx    =       1

Nature and format of output:
     ntxo    =       2, ntpr    =    1000, ntrx    =       1, ntwr    =    1000
     iwrap   =       0, ntwx    =   10000, ntwv    =       0, ntwe    =       0
     ioutfm  =       1, ntwprt  =       0, idecomp =       0, rbornstat=      0

Potential function:
     ntf     =       2, ntb     =       2, igb     =       0, nsnb    =      25
     ipol    =       0, gbsa    =       0, iesp    =       0
     dielc   =   1.00000, cut     =   8.00000, intdiel =   1.00000

Frozen or restrained atoms:
     ibelly  =       0, ntr     =       1
     restraint_wt = 200.00000

Molecular dynamics:
     nstlim  =   1000000, nscm    =         0, nrespa  =         1
     t       =   0.00000, dt      =   0.00100, vlimit  =  -1.00000

Langevin dynamics temperature regulation:
     ig      =  879619
     temp0   = 298.00000, tempi   =   0.00000, gamma_ln=   1.00000

Pressure regulation:
     ntp     =       1
     pres0   =   1.00000, comp    =  44.60000, taup    =   1.00000
     Monte-Carlo Barostat:
     mcbarint  =     100

SHAKE:
     ntc     =       2, jfastw  =       0
     tol     =   0.00001

Ewald parameters:
     verbose =       0, ew_type =       0, nbflag  =       1, use_pme =       1
     vdwmeth =       1, eedmeth =       1, netfrc  =       1
     Box X =  103.171   Box Y =  103.171   Box Z =  103.171
     Alpha =  109.471   Beta  =  109.471   Gamma =  109.471
     NFFT1 =  108       NFFT2 =  108       NFFT3 =  108
     Cutoff=    8.000   Tol   =0.100E-04
     Ewald Coefficient =  0.34864
     Interpolation order =    4

    LOADING THE CONSTRAINED ATOMS AS GROUPS

   5.  REFERENCE ATOM COORDINATES

  default_name
     Mask :1-688; matches 11221 atoms

--------------------------------------------------------------------------------
   3.  ATOMIC COORDINATES AND VELOCITIES
--------------------------------------------------------------------------------

default_name
 begin time read from input coords =  1000.000 ps

 Number of triangulated 3-point waters found:    21142

     Sum of charges from parm topology file =  -0.00000028
     Forcing neutrality...

--------------------------------------------------------------------------------
   4.  RESULTS
 NSTEP =     1000   TIME(PS) =    1001.000  TEMP(K) =   290.04  PRESS =     0.0
 Etot   =   -184820.9016  EKtot   =     44780.2812  EPtot      =   -229601.1828
 BOND   =      1440.5312  ANGLE   =      4052.0365  DIHED      =      8718.6401
 1-4 NB =      3157.0796  1-4 EEL =     29234.8471  VDWAALS    =     25804.4611
 EELEC  =   -307695.5314  EHBOND  =         0.0000  RESTRAINT  =      5686.7528
 EAMBER (non-restraint)  =   -235287.9357
 EKCMT  =         0.0000  VIRIAL  =         0.0000  VOLUME     =    845119.2844
                                                    Density    =         0.9143
 ------------------------------------------------------------------------------

      A V E R A G E S   O V E R    1000 S T E P S

 NSTEP =  1000000   TIME(PS) =    2000.000  TEMP(K) =   298.32  PRESS =     0.0
 Etot   =   -182434.1501  EKtot   =     46058.9403  EPtot      =   -228493.0904
 BOND   =      1506.3749  ANGLE   =      4264.9900  DIHED      =      8761.4989
 1-4 NB =      3163.6668  1-4 EEL =     29234.4389  VDWAALS    =     25679.4357
 EELEC  =   -307517.4769  EHBOND  =         0.0000  RESTRAINT  =      6413.9813
 EAMBER (non-restraint)  =   -234907.0716
 EKCMT  =         0.0000  VIRIAL  =         0.0000  VOLUME     =    827412.6061
                                                    Density    =         0.9338
 ------------------------------------------------------------------------------

      R M S  F L U C T U A T I O N S

 NSTEP =  1000000   TIME(PS) =    2000.000  TEMP(K) =     1.10  PRESS =     0.0
 Etot   =       305.0116  EKtot   =       170.0124  EPtot      =       241.1275
 BOND   =        27.1527  ANGLE   =        31.6680  DIHED      =        12.4567
 1-4 NB =         9.9387  1-4 EEL =        20.1973  VDWAALS    =       244.4190
 EELEC  =       385.4539  EHBOND  =         0.0000  RESTRAINT  =        62.6186
 EAMBER (non-restraint)  =       178.5089
 EKCMT  =         0.0000  VIRIAL  =         0.0000  VOLUME     =      1772.8520
                                                    Density    =         0.0020
 ------------------------------------------------------------------------------
