-------------------------------------------------------
          Amber 20 PMEMD                              2020
          -------------------------------------------------------

  [-O]verwriting output

File Assignments:

 Here is the input file:

 &cntrl
  imin = 0, nstlim = 1000000, dt = 0.001,
  irest = 1, ntx = 5, ig = -1,
  temp0 = 298.0,
  ntc = 2, ntf = 2, tol = 0.00001,
  ntwx = 10000, ntwe = 0, ntwr = 1000, ntpr = 1000,
  cut = 8.0, iwrap = 0,
  ntt =3, gamma_ln=1.0, ntb = 2, ntp = 1,
  nscm = 0, barostat = 2,
  ntr=1, restraintmask="@CA,N,C,C1,C2,C3,C4,C5,OC6,C7,C8,C9,C10,C11,C12,C13,C14
  restraint_wt=5.,
  ioutfm=1, ntxo=2,
 /

Note: ig = -1. Setting random seed to   295619 based on wallclock time in
      microseconds.

--------------------------------------------------------------------------------
   1.  RESOURCE   USE:
--------------------------------------------------------------------------------

 getting box info from netcdf restart file
 NATOM  =   74816 NTYPES =      20 NBONH =   69059 MBONA  =    5688
 NTHETH =   12826 MTHETA =    7714 NPHIH =   25719 MPHIA  =   24778
 NHPARM =       0 NPARM  =       0 NNB   =  146768 NRES   =   21999
 NBONA  =    5688 NTHETA =    7714 NPHIA =   24778 NUMBND =      80
 NUMANG =     183 NPTRA  =     212 NATYP =      47 NPHB   =       0
 IFBOX  =       2 NMXRS  =      49 IFCAP =       0 NEXTRA =       0
 NCOPY  =       0

     BOX TYPE: TRUNCATED OCTAHEDRON

--------------------------------------------------------------------------------
   2.  CONTROL  DATA  FOR  THE  RUN
--------------------------------------------------------------------------------

default_name

General flags:
     imin    =       0, nmropt  =       0

Nature and format of input:
     ntx     =       5, irest   =       1, ntrx    =       1

Nature and format of output:
     ntxo    =       2, ntpr    =    1000, ntrx    =       1, ntwr    =    1000
     iwrap   =       0, ntwx    =   10000, ntwv    =       0, ntwe    =       0
     ioutfm  =       1, ntwprt  =       0, idecomp =       0, rbornstat=      0

Potential function:
     ntf     =       2, ntb     =       2, igb     =       0, nsnb    =      25
     ipol    =       0, gbsa    =       0, iesp    =       0
     dielc   =   1.00000, cut     =   8.00000, intdiel =   1.00000

Frozen or restrained atoms:
     ibelly  =       0, ntr     =       1
     restraint_wt =   5.00000

Molecular dynamics:
     nstlim  =   1000000, nscm    =         0, nrespa  =         1
     t       =   0.00000, dt      =   0.00100, vlimit  =  -1.00000

Langevin dynamics temperature regulation:
     ig      =  295619
     temp0   = 298.00000, tempi   =   0.00000, gamma_ln=   1.00000

Pressure regulation:
     ntp     =       1
     pres0   =   1.00000, comp    =  44.60000, taup    =   1.00000
     Monte-Carlo Barostat:
     mcbarint  =     100

SHAKE:
     ntc     =       2, jfastw  =       0
     tol     =   0.00001

Ewald parameters:
     verbose =       0, ew_type =       0, nbflag  =       1, use_pme =       1
     vdwmeth =       1, eedmeth =       1, netfrc  =       1
     Box X =   99.452   Box Y =   99.452   Box Z =   99.452
     Alpha =  109.471   Beta  =  109.471   Gamma =  109.471
     NFFT1 =  100       NFFT2 =  100       NFFT3 =  100
     Cutoff=    8.000   Tol   =0.100E-04
     Ewald Coefficient =  0.34864
     Interpolation order =    4

    LOADING THE CONSTRAINED ATOMS AS GROUPS

   5.  REFERENCE ATOM COORDINATES

  default_name
     Mask @CA,N,C,C1,C2,C3,C4,C5,OC6,C7,C8,C9,C10,C11,C12,C13,C14,C15,C16,C17,C18,C19,C20,O1,O1A,O2A,O3A,O1B,O2B,PA,PB; matches  2110 atoms

--------------------------------------------------------------------------------
   3.  ATOMIC COORDINATES AND VELOCITIES
--------------------------------------------------------------------------------

default_name
 begin time read from input coords =  1000.000 ps

 Number of triangulated 3-point waters found:    21142

     Sum of charges from parm topology file =  -0.00000028
     Forcing neutrality...

--------------------------------------------------------------------------------
   4.  RESULTS
 NSTEP =     1000   TIME(PS) =    1001.000  TEMP(K) =   298.09  PRESS =     0.0
 Etot   =   -192933.7484  EKtot   =     46023.4297  EPtot      =   -238957.1781
 BOND   =      2099.7688  ANGLE   =      5768.2921  DIHED      =      9520.7178
 1-4 NB =      2680.1497  1-4 EEL =     28471.1681  VDWAALS    =     24237.5288
 EELEC  =   -312280.1735  EHBOND  =         0.0000  RESTRAINT  =       545.3702
 EAMBER (non-restraint)  =   -239502.5483
 EKCMT  =         0.0000  VIRIAL  =         0.0000  VOLUME     =    755828.3644
                                                    Density    =         1.0223
 ------------------------------------------------------------------------------

      A V E R A G E S   O V E R    1000 S T E P S

 NSTEP =  1000000   TIME(PS) =    2000.000  TEMP(K) =   297.98  PRESS =     0.0
 Etot   =   -193581.2205  EKtot   =     46005.6746  EPtot      =   -239586.8952
 BOND   =      2012.2505  ANGLE   =      5837.7254  DIHED      =      9513.6141
 1-4 NB =      2700.7694  1-4 EEL =     28518.3976  VDWAALS    =     24419.2773
 EELEC  =   -313180.9517  EHBOND  =         0.0000  RESTRAINT  =       592.0222
 EAMBER (non-restraint)  =   -240178.9173
 EKCMT  =         0.0000  VIRIAL  =         0.0000  VOLUME     =    749501.7819
                                                    Density    =         1.0309
 ------------------------------------------------------------------------------

      R M S  F L U C T U A T I O N S

 NSTEP =  1000000   TIME(PS) =    2000.000  TEMP(K) =     1.07  PRESS =     0.0
 Etot   =       288.4296  EKtot   =       165.2674  EPtot      =       231.5083
 BOND   =        36.8968  ANGLE   =        55.8700  DIHED      =        30.8233
 1-4 NB =        21.3976  1-4 EEL =        50.1448  VDWAALS    =       233.4668
 EELEC  =       363.3494  EHBOND  =         0.0000  RESTRAINT  =        19.5790
 EAMBER (non-restraint)  =       211.9293
 EKCMT  =         0.0000  VIRIAL  =         0.0000  VOLUME     =      1280.2763
                                                    Density    =         0.0018
 ------------------------------------------------------------------------------
