-------------------------------------------------------
          Amber 20 PMEMD                              2020
          -------------------------------------------------------

  [-O]verwriting output

File Assignments:

 Here is the input file:

 &cntrl
  imin = 0, nstlim = 1000000, dt = 0.001,
  irest = 1, ntx = 5, ig = -1,
  temp0 = 298.0,
  ntc = 2, ntf = 2, tol = 0.00001,
  ntwx = 10000, ntwe = 0, ntwr = 1000, ntpr = 1000,
  cut = 8.0, iwrap = 0,
  ntt =3, gamma_ln=1.0, ntb = 2, ntp = 1, barostat = 2,
  nscm = 0,
  ntr=1, restraintmask=':1-686', restraint_wt=200.
  ioutfm=1, ntxo=2,
 /

Note: ig = -1. Setting random seed to   576933 based on wallclock time in
      microseconds.

--------------------------------------------------------------------------------
   1.  RESOURCE   USE:
--------------------------------------------------------------------------------

 getting box info from netcdf restart file
 NATOM  =   74847 NTYPES =      20 NBONH =   69112 MBONA  =    5676
 NTHETH =   12868 MTHETA =    7690 NPHIH =   25801 MPHIA  =   24788
 NHPARM =       0 NPARM  =       0 NNB   =  146888 NRES   =   21998
 NBONA  =    5676 NTHETA =    7690 NPHIA =   24788 NUMBND =      78
 NUMANG =     177 NPTRA  =     200 NATYP =      45 NPHB   =       0
 IFBOX  =       2 NMXRS  =      62 IFCAP =       0 NEXTRA =       0
 NCOPY  =       0

     BOX TYPE: TRUNCATED OCTAHEDRON

--------------------------------------------------------------------------------
   2.  CONTROL  DATA  FOR  THE  RUN
--------------------------------------------------------------------------------

default_name

General flags:
     imin    =       0, nmropt  =       0

Nature and format of input:
     ntx     =       5, irest   =       1, ntrx    =       1

Nature and format of output:
     ntxo    =       2, ntpr    =    1000, ntrx    =       1, ntwr    =    1000
     iwrap   =       0, ntwx    =   10000, ntwv    =       0, ntwe    =       0
     ioutfm  =       1, ntwprt  =       0, idecomp =       0, rbornstat=      0

Potential function:
     ntf     =       2, ntb     =       2, igb     =       0, nsnb    =      25
     ipol    =       0, gbsa    =       0, iesp    =       0
     dielc   =   1.00000, cut     =   8.00000, intdiel =   1.00000

Frozen or restrained atoms:
     ibelly  =       0, ntr     =       1
     restraint_wt = 200.00000

Molecular dynamics:
     nstlim  =   1000000, nscm    =         0, nrespa  =         1
     t       =   0.00000, dt      =   0.00100, vlimit  =  -1.00000

Langevin dynamics temperature regulation:
     ig      =  576933
     temp0   = 298.00000, tempi   =   0.00000, gamma_ln=   1.00000

Pressure regulation:
     ntp     =       1
     pres0   =   1.00000, comp    =  44.60000, taup    =   1.00000
     Monte-Carlo Barostat:
     mcbarint  =     100

SHAKE:
     ntc     =       2, jfastw  =       0
     tol     =   0.00001

Ewald parameters:
     verbose =       0, ew_type =       0, nbflag  =       1, use_pme =       1
     vdwmeth =       1, eedmeth =       1, netfrc  =       1
     Box X =  103.128   Box Y =  103.128   Box Z =  103.128
     Alpha =  109.471   Beta  =  109.471   Gamma =  109.471
     NFFT1 =  108       NFFT2 =  108       NFFT3 =  108
     Cutoff=    8.000   Tol   =0.100E-04
     Ewald Coefficient =  0.34864
     Interpolation order =    4

    LOADING THE CONSTRAINED ATOMS AS GROUPS

   5.  REFERENCE ATOM COORDINATES

  default_name
     Mask :1-686; matches 11229 atoms

--------------------------------------------------------------------------------
   3.  ATOMIC COORDINATES AND VELOCITIES
--------------------------------------------------------------------------------

default_name
 begin time read from input coords =  1000.000 ps

 Number of triangulated 3-point waters found:    21153

     Sum of charges from parm topology file =  -0.00000030
     Forcing neutrality...

--------------------------------------------------------------------------------
   4.  RESULTS
 NSTEP =     1000   TIME(PS) =    1001.000  TEMP(K) =   291.64  PRESS =     0.0
 Etot   =   -185260.2988  EKtot   =     45039.1641  EPtot      =   -230299.4629
 BOND   =      1321.7447  ANGLE   =      3586.9923  DIHED      =      8967.1346
 1-4 NB =      3103.2391  1-4 EEL =     29270.1784  VDWAALS    =     24713.4370
 EELEC  =   -306667.4894  EHBOND  =         0.0000  RESTRAINT  =      5405.3004
 EAMBER (non-restraint)  =   -235704.7633
 EKCMT  =         0.0000  VIRIAL  =         0.0000  VOLUME     =    842028.1216
                                                    Density    =         0.9170
 ------------------------------------------------------------------------------

      A V E R A G E S   O V E R    1000 S T E P S

 NSTEP =  1000000   TIME(PS) =    2000.000  TEMP(K) =   298.24  PRESS =     0.0
 Etot   =   -182628.5134  EKtot   =     46058.9548  EPtot      =   -228687.4682
 BOND   =      1427.9233  ANGLE   =      3800.9201  DIHED      =      8995.3027
 1-4 NB =      3111.0854  1-4 EEL =     29228.7119  VDWAALS    =     24840.3200
 EELEC  =   -306347.7441  EHBOND  =         0.0000  RESTRAINT  =      6256.0126
 EAMBER (non-restraint)  =   -234943.4807
 EKCMT  =         0.0000  VIRIAL  =         0.0000  VOLUME     =    825592.9849
                                                    Density    =         0.9353
 ------------------------------------------------------------------------------

      R M S  F L U C T U A T I O N S

 NSTEP =  1000000   TIME(PS) =    2000.000  TEMP(K) =     1.12  PRESS =     0.0
 Etot   =       296.8994  EKtot   =       173.3020  EPtot      =       243.8766
 BOND   =        27.3004  ANGLE   =        30.7574  DIHED      =        12.5038
 1-4 NB =         8.9174  1-4 EEL =        21.1157  VDWAALS    =       225.0219
 EELEC  =       360.8673  EHBOND  =         0.0000  RESTRAINT  =        63.1397
 EAMBER (non-restraint)  =       180.7369
 EKCMT  =         0.0000  VIRIAL  =         0.0000  VOLUME     =      1712.5702
                                                    Density    =         0.0019
 ------------------------------------------------------------------------------
