-------------------------------------------------------
          Amber 20 PMEMD                              2020
          -------------------------------------------------------

  [-O]verwriting output

File Assignments:

 Here is the input file:

 &cntrl
  imin = 0, nstlim = 1000000, dt = 0.001,
  irest = 1, ntx = 5, ig = -1,
  temp0 = 298.0,
  ntc = 2, ntf = 2, tol = 0.00001,
  ntwx = 10000, ntwe = 0, ntwr = 1000, ntpr = 1000,
  cut = 8.0, iwrap = 0,
  ntt =3, gamma_ln=1.0, ntb = 2, ntp = 1,
  nscm = 0, barostat = 2,
  ntr=1, restraintmask="@CA,N,C,C1,C2,C3,C4,C5,OC6,C7,C8,C9,C10,C11,C12,C13,C14
  restraint_wt=5.,
  ioutfm=1, ntxo=2,
 /

Note: ig = -1. Setting random seed to   237217 based on wallclock time in
      microseconds.

--------------------------------------------------------------------------------
   1.  RESOURCE   USE:
--------------------------------------------------------------------------------

 getting box info from netcdf restart file
 NATOM  =   74847 NTYPES =      20 NBONH =   69112 MBONA  =    5676
 NTHETH =   12868 MTHETA =    7690 NPHIH =   25801 MPHIA  =   24788
 NHPARM =       0 NPARM  =       0 NNB   =  146888 NRES   =   21998
 NBONA  =    5676 NTHETA =    7690 NPHIA =   24788 NUMBND =      78
 NUMANG =     177 NPTRA  =     200 NATYP =      45 NPHB   =       0
 IFBOX  =       2 NMXRS  =      62 IFCAP =       0 NEXTRA =       0
 NCOPY  =       0

     BOX TYPE: TRUNCATED OCTAHEDRON

--------------------------------------------------------------------------------
   2.  CONTROL  DATA  FOR  THE  RUN
--------------------------------------------------------------------------------

default_name

General flags:
     imin    =       0, nmropt  =       0

Nature and format of input:
     ntx     =       5, irest   =       1, ntrx    =       1

Nature and format of output:
     ntxo    =       2, ntpr    =    1000, ntrx    =       1, ntwr    =    1000
     iwrap   =       0, ntwx    =   10000, ntwv    =       0, ntwe    =       0
     ioutfm  =       1, ntwprt  =       0, idecomp =       0, rbornstat=      0

Potential function:
     ntf     =       2, ntb     =       2, igb     =       0, nsnb    =      25
     ipol    =       0, gbsa    =       0, iesp    =       0
     dielc   =   1.00000, cut     =   8.00000, intdiel =   1.00000

Frozen or restrained atoms:
     ibelly  =       0, ntr     =       1
     restraint_wt =   5.00000

Molecular dynamics:
     nstlim  =   1000000, nscm    =         0, nrespa  =         1
     t       =   0.00000, dt      =   0.00100, vlimit  =  -1.00000

Langevin dynamics temperature regulation:
     ig      =  237217
     temp0   = 298.00000, tempi   =   0.00000, gamma_ln=   1.00000

Pressure regulation:
     ntp     =       1
     pres0   =   1.00000, comp    =  44.60000, taup    =   1.00000
     Monte-Carlo Barostat:
     mcbarint  =     100

SHAKE:
     ntc     =       2, jfastw  =       0
     tol     =   0.00001

Ewald parameters:
     verbose =       0, ew_type =       0, nbflag  =       1, use_pme =       1
     vdwmeth =       1, eedmeth =       1, netfrc  =       1
     Box X =   99.349   Box Y =   99.349   Box Z =   99.349
     Alpha =  109.471   Beta  =  109.471   Gamma =  109.471
     NFFT1 =  100       NFFT2 =  100       NFFT3 =  100
     Cutoff=    8.000   Tol   =0.100E-04
     Ewald Coefficient =  0.34864
     Interpolation order =    4

    LOADING THE CONSTRAINED ATOMS AS GROUPS

   5.  REFERENCE ATOM COORDINATES

  default_name
     Mask @CA,N,C,C1,C2,C3,C4,C5,OC6,C7,C8,C9,C10,C11,C12,C13,C14,C15,C16,C17,C18,C19,C20,O1,O1A,O2A,O3A,O1B,O2B,PA,PB; matches  2094 atoms

--------------------------------------------------------------------------------
   3.  ATOMIC COORDINATES AND VELOCITIES
--------------------------------------------------------------------------------

default_name
 begin time read from input coords =  1000.000 ps

 Number of triangulated 3-point waters found:    21153

     Sum of charges from parm topology file =  -0.00000030
     Forcing neutrality...

--------------------------------------------------------------------------------
   4.  RESULTS
 NSTEP =     1000   TIME(PS) =    1001.000  TEMP(K) =   296.85  PRESS =     0.0
 Etot   =   -192191.6637  EKtot   =     45844.2461  EPtot      =   -238035.9098
 BOND   =      2022.1693  ANGLE   =      5747.8719  DIHED      =      9578.7944
 1-4 NB =      2721.5420  1-4 EEL =     28592.9037  VDWAALS    =     24375.3901
 EELEC  =   -311550.5113  EHBOND  =         0.0000  RESTRAINT  =       475.9301
 EAMBER (non-restraint)  =   -238511.8399
 EKCMT  =         0.0000  VIRIAL  =         0.0000  VOLUME     =    754854.4656
                                                    Density    =         1.0229
 ------------------------------------------------------------------------------

      A V E R A G E S   O V E R    1000 S T E P S

 NSTEP =  1000000   TIME(PS) =    2000.000  TEMP(K) =   298.02  PRESS =     0.0
 Etot   =   -191956.7845  EKtot   =     46023.7593  EPtot      =   -237980.5438
 BOND   =      2009.6246  ANGLE   =      5799.1183  DIHED      =      9493.5445
 1-4 NB =      2703.6266  1-4 EEL =     28522.4561  VDWAALS    =     24336.1845
 EELEC  =   -311360.9337  EHBOND  =         0.0000  RESTRAINT  =       515.8353
 EAMBER (non-restraint)  =   -238496.3791
 EKCMT  =         0.0000  VIRIAL  =         0.0000  VOLUME     =    749426.5476
                                                    Density    =         1.0303
 ------------------------------------------------------------------------------

      R M S  F L U C T U A T I O N S

 NSTEP =  1000000   TIME(PS) =    2000.000  TEMP(K) =     1.11  PRESS =     0.0
 Etot   =       290.3480  EKtot   =       171.4281  EPtot      =       232.8408
 BOND   =        36.3561  ANGLE   =        57.9332  DIHED      =        31.1377
 1-4 NB =        21.4600  1-4 EEL =        55.6669  VDWAALS    =       231.0709
 EELEC  =       362.5281  EHBOND  =         0.0000  RESTRAINT  =        15.3901
 EAMBER (non-restraint)  =       217.4508
 EKCMT  =         0.0000  VIRIAL  =         0.0000  VOLUME     =      1303.4170
                                                    Density    =         0.0018
 ------------------------------------------------------------------------------
