-------------------------------------------------------
          Amber 20 PMEMD                              2020
          -------------------------------------------------------

  [-O]verwriting output

File Assignments:

 Here is the input file:

 &cntrl
  imin = 0, nstlim = 1000000, dt = 0.001,
  irest = 1, ntx = 5, ig = -1,
  temp0 = 298.0,
  ntc = 2, ntf = 2, tol = 0.00001,
  ntwx = 10000, ntwe = 0, ntwr = 1000, ntpr = 1000,
  cut = 8.0, iwrap = 0,
  ntt =3,  gamma_ln=1.0, ntb = 2, ntp = 1,
  nscm = 0, barostat = 2,
  ntr=1, restraintmask=':1-688', restraint_wt=50.
  ioutfm=1, ntxo=2,
 /

Note: ig = -1. Setting random seed to   660002 based on wallclock time in
      microseconds.

--------------------------------------------------------------------------------
   1.  RESOURCE   USE:
--------------------------------------------------------------------------------

 getting box info from netcdf restart file
 NATOM  =   74644 NTYPES =      20 NBONH =   68873 MBONA  =    5706
 NTHETH =   12912 MTHETA =    7734 NPHIH =   25885 MPHIA  =   24856
 NHPARM =       0 NPARM  =       0 NNB   =  146792 NRES   =   21917
 NBONA  =    5706 NTHETA =    7734 NPHIA =   24856 NUMBND =      80
 NUMANG =     183 NPTRA  =     212 NATYP =      47 NPHB   =       0
 IFBOX  =       2 NMXRS  =      49 IFCAP =       0 NEXTRA =       0
 NCOPY  =       0

     BOX TYPE: TRUNCATED OCTAHEDRON

--------------------------------------------------------------------------------
   2.  CONTROL  DATA  FOR  THE  RUN
--------------------------------------------------------------------------------

default_name

General flags:
     imin    =       0, nmropt  =       0

Nature and format of input:
     ntx     =       5, irest   =       1, ntrx    =       1

Nature and format of output:
     ntxo    =       2, ntpr    =    1000, ntrx    =       1, ntwr    =    1000
     iwrap   =       0, ntwx    =   10000, ntwv    =       0, ntwe    =       0
     ioutfm  =       1, ntwprt  =       0, idecomp =       0, rbornstat=      0

Potential function:
     ntf     =       2, ntb     =       2, igb     =       0, nsnb    =      25
     ipol    =       0, gbsa    =       0, iesp    =       0
     dielc   =   1.00000, cut     =   8.00000, intdiel =   1.00000

Frozen or restrained atoms:
     ibelly  =       0, ntr     =       1
     restraint_wt =  50.00000

Molecular dynamics:
     nstlim  =   1000000, nscm    =         0, nrespa  =         1
     t       =   0.00000, dt      =   0.00100, vlimit  =  -1.00000

Langevin dynamics temperature regulation:
     ig      =  660002
     temp0   = 298.00000, tempi   =   0.00000, gamma_ln=   1.00000

Pressure regulation:
     ntp     =       1
     pres0   =   1.00000, comp    =  44.60000, taup    =   1.00000
     Monte-Carlo Barostat:
     mcbarint  =     100

SHAKE:
     ntc     =       2, jfastw  =       0
     tol     =   0.00001

Ewald parameters:
     verbose =       0, ew_type =       0, nbflag  =       1, use_pme =       1
     vdwmeth =       1, eedmeth =       1, netfrc  =       1
     Box X =  102.194   Box Y =  102.194   Box Z =  102.194
     Alpha =  109.471   Beta  =  109.471   Gamma =  109.471
     NFFT1 =  108       NFFT2 =  108       NFFT3 =  108
     Cutoff=    8.000   Tol   =0.100E-04
     Ewald Coefficient =  0.34864
     Interpolation order =    4

    LOADING THE CONSTRAINED ATOMS AS GROUPS

   5.  REFERENCE ATOM COORDINATES

  default_name
     Mask :1-688; matches 11283 atoms

--------------------------------------------------------------------------------
   3.  ATOMIC COORDINATES AND VELOCITIES
--------------------------------------------------------------------------------

default_name
 begin time read from input coords =  2000.000 ps

 Number of triangulated 3-point waters found:    21066

     Sum of charges from parm topology file =  -0.00000029
     Forcing neutrality...

--------------------------------------------------------------------------------
   4.  RESULTS
 NSTEP =     1000   TIME(PS) =    2001.000  TEMP(K) =   292.99  PRESS =     0.0
 Etot   =   -185749.3533  EKtot   =     45139.4883  EPtot      =   -230888.8416
 BOND   =      1596.8686  ANGLE   =      4553.5426  DIHED      =      8904.1186
 1-4 NB =      3095.7920  1-4 EEL =     28511.7196  VDWAALS    =     24946.5362
 EELEC  =   -306809.8645  EHBOND  =         0.0000  RESTRAINT  =      4312.4454
 EAMBER (non-restraint)  =   -235201.2869
 EKCMT  =         0.0000  VIRIAL  =         0.0000  VOLUME     =    819799.0325
                                                    Density    =         0.9401
 ------------------------------------------------------------------------------

      A V E R A G E S   O V E R    1000 S T E P S

 NSTEP =  1000000   TIME(PS) =    3000.000  TEMP(K) =   298.12  PRESS =     0.0
 Etot   =   -183906.5406  EKtot   =     45929.8316  EPtot      =   -229836.3722
 BOND   =      1701.2063  ANGLE   =      4829.9906  DIHED      =      8945.6156
 1-4 NB =      3099.4293  1-4 EEL =     28428.8389  VDWAALS    =     24834.3523
 EELEC  =   -306341.1530  EHBOND  =         0.0000  RESTRAINT  =      4665.3478
 EAMBER (non-restraint)  =   -234501.7200
 EKCMT  =         0.0000  VIRIAL  =         0.0000  VOLUME     =    810972.9573
                                                    Density    =         0.9503
 ------------------------------------------------------------------------------

      R M S  F L U C T U A T I O N S

 NSTEP =  1000000   TIME(PS) =    3000.000  TEMP(K) =     1.08  PRESS =     0.0
 Etot   =       303.6028  EKtot   =       166.0910  EPtot      =       244.9529
 BOND   =        31.5176  ANGLE   =        43.3245  DIHED      =        18.3595
 1-4 NB =        13.2743  1-4 EEL =        32.1219  VDWAALS    =       232.5124
 EELEC  =       379.4831  EHBOND  =         0.0000  RESTRAINT  =        48.2369
 EAMBER (non-restraint)  =       196.7160
 EKCMT  =         0.0000  VIRIAL  =         0.0000  VOLUME     =      1556.9481
                                                    Density    =         0.0018
 ------------------------------------------------------------------------------
