-------------------------------------------------------
          Amber 20 PMEMD                              2020
          -------------------------------------------------------

  [-O]verwriting output

File Assignments:

 Here is the input file:

 &cntrl
  imin = 0, nstlim = 1000000, dt = 0.001,
  irest = 1, ntx = 5, ig = -1,
  temp0 = 298.0,
  ntc = 2, ntf = 2, tol = 0.00001,
  ntwx = 10000, ntwe = 0, ntwr = 1000, ntpr = 1000,
  cut = 8.0, iwrap = 0,
  ntt =3, gamma_ln=1.0, ntb = 2, ntp = 1,
  nscm = 1000, barostat = 2,
  ioutfm=1, ntxo=2,
 /

Note: ig = -1. Setting random seed to    13582 based on wallclock time in
      microseconds.

--------------------------------------------------------------------------------
   1.  RESOURCE   USE:
--------------------------------------------------------------------------------

 getting box info from netcdf restart file
 NATOM  =   74644 NTYPES =      20 NBONH =   68873 MBONA  =    5706
 NTHETH =   12912 MTHETA =    7734 NPHIH =   25885 MPHIA  =   24856
 NHPARM =       0 NPARM  =       0 NNB   =  146792 NRES   =   21917
 NBONA  =    5706 NTHETA =    7734 NPHIA =   24856 NUMBND =      80
 NUMANG =     183 NPTRA  =     212 NATYP =      47 NPHB   =       0
 IFBOX  =       2 NMXRS  =      49 IFCAP =       0 NEXTRA =       0
 NCOPY  =       0

     BOX TYPE: TRUNCATED OCTAHEDRON

--------------------------------------------------------------------------------
   2.  CONTROL  DATA  FOR  THE  RUN
--------------------------------------------------------------------------------

default_name

General flags:
     imin    =       0, nmropt  =       0

Nature and format of input:
     ntx     =       5, irest   =       1, ntrx    =       1

Nature and format of output:
     ntxo    =       2, ntpr    =    1000, ntrx    =       1, ntwr    =    1000
     iwrap   =       0, ntwx    =   10000, ntwv    =       0, ntwe    =       0
     ioutfm  =       1, ntwprt  =       0, idecomp =       0, rbornstat=      0

Potential function:
     ntf     =       2, ntb     =       2, igb     =       0, nsnb    =      25
     ipol    =       0, gbsa    =       0, iesp    =       0
     dielc   =   1.00000, cut     =   8.00000, intdiel =   1.00000

Frozen or restrained atoms:
     ibelly  =       0, ntr     =       0

Molecular dynamics:
     nstlim  =   1000000, nscm    =      1000, nrespa  =         1
     t       =   0.00000, dt      =   0.00100, vlimit  =  -1.00000

Langevin dynamics temperature regulation:
     ig      =   13582
     temp0   = 298.00000, tempi   =   0.00000, gamma_ln=   1.00000

Pressure regulation:
     ntp     =       1
     pres0   =   1.00000, comp    =  44.60000, taup    =   1.00000
     Monte-Carlo Barostat:
     mcbarint  =     100

SHAKE:
     ntc     =       2, jfastw  =       0
     tol     =   0.00001

Ewald parameters:
     verbose =       0, ew_type =       0, nbflag  =       1, use_pme =       1
     vdwmeth =       1, eedmeth =       1, netfrc  =       1
     Box X =   98.726   Box Y =   98.726   Box Z =   98.726
     Alpha =  109.471   Beta  =  109.471   Gamma =  109.471
     NFFT1 =  100       NFFT2 =  100       NFFT3 =  100
     Cutoff=    8.000   Tol   =0.100E-04
     Ewald Coefficient =  0.34864
     Interpolation order =    4

--------------------------------------------------------------------------------
   3.  ATOMIC COORDINATES AND VELOCITIES
--------------------------------------------------------------------------------

default_name
 begin time read from input coords =  3000.000 ps

 Number of triangulated 3-point waters found:    21066

     Sum of charges from parm topology file =  -0.00000029
     Forcing neutrality...

--------------------------------------------------------------------------------
   4.  RESULTS
 NSTEP =     1000   TIME(PS) =    3001.000  TEMP(K) =   299.58  PRESS =     0.0
 Etot   =   -193923.0669  EKtot   =     46154.7539  EPtot      =   -240077.8208
 BOND   =      2002.9268  ANGLE   =      5983.3933  DIHED      =      9505.6966
 1-4 NB =      2638.1633  1-4 EEL =     27814.7395  VDWAALS    =     24606.3440
 EELEC  =   -312629.0844  EHBOND  =         0.0000  RESTRAINT  =         0.0000
 EKCMT  =         0.0000  VIRIAL  =         0.0000  VOLUME     =    741000.5293
                                                    Density    =         1.0400
 ------------------------------------------------------------------------------

      A V E R A G E S   O V E R    1000 S T E P S

 NSTEP =  1000000   TIME(PS) =    4000.000  TEMP(K) =   298.03  PRESS =     0.0
 Etot   =   -194486.1209  EKtot   =     45915.9927  EPtot      =   -240402.1136
 BOND   =      2063.3045  ANGLE   =      5905.2134  DIHED      =      9444.4449
 1-4 NB =      2642.1958  1-4 EEL =     27816.6881  VDWAALS    =     24536.3938
 EELEC  =   -312810.3541  EHBOND  =         0.0000  RESTRAINT  =         0.0000
 EKCMT  =         0.0000  VIRIAL  =         0.0000  VOLUME     =    739765.6921
                                                    Density    =         1.0418
 ------------------------------------------------------------------------------

      R M S  F L U C T U A T I O N S

 NSTEP =  1000000   TIME(PS) =    4000.000  TEMP(K) =     1.07  PRESS =     0.0
 Etot   =       285.1822  EKtot   =       164.9077  EPtot      =       242.1551
 BOND   =        36.6806  ANGLE   =        56.7566  DIHED      =        32.8479
 1-4 NB =        21.9540  1-4 EEL =        53.9727  VDWAALS    =       236.8335
 EELEC  =       369.3664  EHBOND  =         0.0000  RESTRAINT  =         0.0000
 EKCMT  =         0.0000  VIRIAL  =         0.0000  VOLUME     =      1289.2680
                                                    Density    =         0.0018
 ------------------------------------------------------------------------------
