-------------------------------------------------------
          Amber 20 PMEMD                              2020
          -------------------------------------------------------

  [-O]verwriting output

File Assignments:

 Here is the input file:

 &cntrl
  imin = 0, nstlim = 1000000, dt = 0.001,
  irest = 1, ntx = 5, ig = -1,
  temp0 = 298.0,
  ntc = 2, ntf = 2, tol = 0.00001,
  ntwx = 10000, ntwe = 0, ntwr = 1000, ntpr = 1000,
  cut = 8.0, iwrap = 0,
  ntt =3,  gamma_ln=1.0, ntb = 2, ntp = 1,
  nscm = 0, barostat = 2,
  ntr=1, restraintmask=':1-686', restraint_wt=50.
  ioutfm=1, ntxo=2,
 /

Note: ig = -1. Setting random seed to   270103 based on wallclock time in
      microseconds.

--------------------------------------------------------------------------------
   1.  RESOURCE   USE:
--------------------------------------------------------------------------------

 getting box info from netcdf restart file
 NATOM  =   74819 NTYPES =      20 NBONH =   69058 MBONA  =    5696
 NTHETH =   12884 MTHETA =    7724 NPHIH =   25809 MPHIA  =   24828
 NHPARM =       0 NPARM  =       0 NNB   =  146936 NRES   =   21986
 NBONA  =    5696 NTHETA =    7724 NPHIA =   24828 NUMBND =      78
 NUMANG =     180 NPTRA  =     201 NATYP =      45 NPHB   =       0
 IFBOX  =       2 NMXRS  =      49 IFCAP =       0 NEXTRA =       0
 NCOPY  =       0

     BOX TYPE: TRUNCATED OCTAHEDRON

--------------------------------------------------------------------------------
   2.  CONTROL  DATA  FOR  THE  RUN
--------------------------------------------------------------------------------

default_name

General flags:
     imin    =       0, nmropt  =       0

Nature and format of input:
     ntx     =       5, irest   =       1, ntrx    =       1

Nature and format of output:
     ntxo    =       2, ntpr    =    1000, ntrx    =       1, ntwr    =    1000
     iwrap   =       0, ntwx    =   10000, ntwv    =       0, ntwe    =       0
     ioutfm  =       1, ntwprt  =       0, idecomp =       0, rbornstat=      0

Potential function:
     ntf     =       2, ntb     =       2, igb     =       0, nsnb    =      25
     ipol    =       0, gbsa    =       0, iesp    =       0
     dielc   =   1.00000, cut     =   8.00000, intdiel =   1.00000

Frozen or restrained atoms:
     ibelly  =       0, ntr     =       1
     restraint_wt =  50.00000

Molecular dynamics:
     nstlim  =   1000000, nscm    =         0, nrespa  =         1
     t       =   0.00000, dt      =   0.00100, vlimit  =  -1.00000

Langevin dynamics temperature regulation:
     ig      =  270103
     temp0   = 298.00000, tempi   =   0.00000, gamma_ln=   1.00000

Pressure regulation:
     ntp     =       1
     pres0   =   1.00000, comp    =  44.60000, taup    =   1.00000
     Monte-Carlo Barostat:
     mcbarint  =     100

SHAKE:
     ntc     =       2, jfastw  =       0
     tol     =   0.00001

Ewald parameters:
     verbose =       0, ew_type =       0, nbflag  =       1, use_pme =       1
     vdwmeth =       1, eedmeth =       1, netfrc  =       1
     Box X =  102.322   Box Y =  102.322   Box Z =  102.322
     Alpha =  109.471   Beta  =  109.471   Gamma =  109.471
     NFFT1 =  108       NFFT2 =  108       NFFT3 =  108
     Cutoff=    8.000   Tol   =0.100E-04
     Ewald Coefficient =  0.34864
     Interpolation order =    4

    LOADING THE CONSTRAINED ATOMS AS GROUPS

   5.  REFERENCE ATOM COORDINATES

  default_name
     Mask :1-686; matches 11183 atoms

--------------------------------------------------------------------------------
   3.  ATOMIC COORDINATES AND VELOCITIES
--------------------------------------------------------------------------------

default_name
 begin time read from input coords =  2000.000 ps

 Number of triangulated 3-point waters found:    21133

     Sum of charges from parm topology file =  -0.00000029
     Forcing neutrality...

--------------------------------------------------------------------------------
   4.  RESULTS
 NSTEP =     1000   TIME(PS) =    2001.000  TEMP(K) =   293.17  PRESS =     0.0
 Etot   =   -186237.6931  EKtot   =     45267.2539  EPtot      =   -231504.9470
 BOND   =      1575.5831  ANGLE   =      4571.1813  DIHED      =      9070.2071
 1-4 NB =      3083.9957  1-4 EEL =     29049.5467  VDWAALS    =     25501.3024
 EELEC  =   -308548.8489  EHBOND  =         0.0000  RESTRAINT  =      4192.0858
 EAMBER (non-restraint)  =   -235697.0328
 EKCMT  =         0.0000  VIRIAL  =         0.0000  VOLUME     =    824682.2879
                                                    Density    =         0.9366
 ------------------------------------------------------------------------------

      A V E R A G E S   O V E R    1000 S T E P S

 NSTEP =  1000000   TIME(PS) =    3000.000  TEMP(K) =   298.12  PRESS =     0.0
 Etot   =   -184470.7961  EKtot   =     46031.0321  EPtot      =   -230501.8283
 BOND   =      1699.6768  ANGLE   =      4765.2368  DIHED      =      9133.2257
 1-4 NB =      3099.2422  1-4 EEL =     29064.0417  VDWAALS    =     24791.3831
 EELEC  =   -307655.0387  EHBOND  =         0.0000  RESTRAINT  =      4600.4040
 EAMBER (non-restraint)  =   -235102.2323
 EKCMT  =         0.0000  VIRIAL  =         0.0000  VOLUME     =    814468.0395
                                                    Density    =         0.9483
 ------------------------------------------------------------------------------

      R M S  F L U C T U A T I O N S

 NSTEP =  1000000   TIME(PS) =    3000.000  TEMP(K) =     1.07  PRESS =     0.0
 Etot   =       300.5957  EKtot   =       165.9335  EPtot      =       253.0517
 BOND   =        30.5374  ANGLE   =        42.1562  DIHED      =        18.7250
 1-4 NB =        13.7304  1-4 EEL =        30.4959  VDWAALS    =       217.7162
 EELEC  =       371.1216  EHBOND  =         0.0000  RESTRAINT  =        46.2535
 EAMBER (non-restraint)  =       206.7982
 EKCMT  =         0.0000  VIRIAL  =         0.0000  VOLUME     =      1669.0319
                                                    Density    =         0.0019
 ------------------------------------------------------------------------------
