-------------------------------------------------------
          Amber 20 PMEMD                              2020
          -------------------------------------------------------

  [-O]verwriting output

File Assignments:

 Here is the input file:

 &cntrl
  imin = 0, nstlim = 1000000, dt = 0.001,
  irest = 0, ntx = 1, ig = -1,
  tempi = 298.0, temp0 = 298.0,
  ntc = 2, ntf = 2, tol = 0.00001,
  ntwx = 10000, ntwe = 0, ntwr = 1000, ntpr = 1000,
  cut = 8.0, iwrap = 0,
  ntt =3, gamma_ln=1.0, ntb = 2, ntp = 1,
  nscm = 0, barostat = 2,
  ntr=1, restraintmask="@CA,N,C,C1,C2,C3,C4,C5,C6,C7,C8,C9,C10,C11,C12,C13,C14,
  restraint_wt=50.
  ioutfm=1, ntxo=2,
 /

Note: ig = -1. Setting random seed to   155964 based on wallclock time in
      microseconds.

--------------------------------------------------------------------------------
   1.  RESOURCE   USE:
--------------------------------------------------------------------------------

 getting box info from netcdf restart file
 NATOM  =   74819 NTYPES =      20 NBONH =   69058 MBONA  =    5696
 NTHETH =   12884 MTHETA =    7724 NPHIH =   25809 MPHIA  =   24828
 NHPARM =       0 NPARM  =       0 NNB   =  146936 NRES   =   21986
 NBONA  =    5696 NTHETA =    7724 NPHIA =   24828 NUMBND =      78
 NUMANG =     180 NPTRA  =     201 NATYP =      45 NPHB   =       0
 IFBOX  =       2 NMXRS  =      49 IFCAP =       0 NEXTRA =       0
 NCOPY  =       0

     BOX TYPE: TRUNCATED OCTAHEDRON

--------------------------------------------------------------------------------
   2.  CONTROL  DATA  FOR  THE  RUN
--------------------------------------------------------------------------------

default_name

General flags:
     imin    =       0, nmropt  =       0

Nature and format of input:
     ntx     =       1, irest   =       0, ntrx    =       1

Nature and format of output:
     ntxo    =       2, ntpr    =    1000, ntrx    =       1, ntwr    =    1000
     iwrap   =       0, ntwx    =   10000, ntwv    =       0, ntwe    =       0
     ioutfm  =       1, ntwprt  =       0, idecomp =       0, rbornstat=      0

Potential function:
     ntf     =       2, ntb     =       2, igb     =       0, nsnb    =      25
     ipol    =       0, gbsa    =       0, iesp    =       0
     dielc   =   1.00000, cut     =   8.00000, intdiel =   1.00000

Frozen or restrained atoms:
     ibelly  =       0, ntr     =       1
     restraint_wt =  50.00000

Molecular dynamics:
     nstlim  =   1000000, nscm    =         0, nrespa  =         1
     t       =   0.00000, dt      =   0.00100, vlimit  =  -1.00000

Langevin dynamics temperature regulation:
     ig      =  155964
     temp0   = 298.00000, tempi   = 298.00000, gamma_ln=   1.00000

Pressure regulation:
     ntp     =       1
     pres0   =   1.00000, comp    =  44.60000, taup    =   1.00000
     Monte-Carlo Barostat:
     mcbarint  =     100

SHAKE:
     ntc     =       2, jfastw  =       0
     tol     =   0.00001

Ewald parameters:
     verbose =       0, ew_type =       0, nbflag  =       1, use_pme =       1
     vdwmeth =       1, eedmeth =       1, netfrc  =       1
     Box X =  102.011   Box Y =  102.011   Box Z =  102.011
     Alpha =  109.471   Beta  =  109.471   Gamma =  109.471
     NFFT1 =  108       NFFT2 =  108       NFFT3 =  108
     Cutoff=    8.000   Tol   =0.100E-04
     Ewald Coefficient =  0.34864
     Interpolation order =    4

    LOADING THE CONSTRAINED ATOMS AS GROUPS

   5.  REFERENCE ATOM COORDINATES

  default_name
     Mask @CA,N,C,C1,C2,C3,C4,C5,C6,C7,C8,C9,C10,C11,C12,C13,C14,C15,C16,C17,C18,C19,C20,O1,O1A,O2A,O3A,O1B,O2B,PA,PB; matches  2112 atoms

--------------------------------------------------------------------------------
   3.  ATOMIC COORDINATES AND VELOCITIES
--------------------------------------------------------------------------------

default_name
 begin time read from input coords =     0.000 ps

 Number of triangulated 3-point waters found:    21133

     Sum of charges from parm topology file =  -0.00000029
     Forcing neutrality...

--------------------------------------------------------------------------------
   4.  RESULTS
 NSTEP =        0   TIME(PS) =       0.000  TEMP(K) =   432.49  PRESS =     0.0
 Etot   =   -180495.5384  EKtot   =     66777.9746  EPtot      =   -247273.5130
 BOND   =       321.0878  ANGLE   =      2066.0801  DIHED      =      8716.7334
 1-4 NB =      2834.1133  1-4 EEL =     28943.4838  VDWAALS    =     17249.3567
 EELEC  =   -307404.3681  EHBOND  =         0.0000  RESTRAINT  =         0.0000
 EKCMT  =         0.0000  VIRIAL  =         0.0000  VOLUME     =    817181.7818
                                                    Density    =         0.9452
 ------------------------------------------------------------------------------

      A V E R A G E S   O V E R    1000 S T E P S

 NSTEP =  1000000   TIME(PS) =    1000.000  TEMP(K) =   298.01  PRESS =     0.0
 Etot   =   -191794.6331  EKtot   =     46014.3047  EPtot      =   -237808.9377
 BOND   =      1926.7145  ANGLE   =      5783.5236  DIHED      =      9579.2596
 1-4 NB =      2813.9406  1-4 EEL =     28648.3385  VDWAALS    =     24287.7830
 EELEC  =   -311828.1273  EHBOND  =         0.0000  RESTRAINT  =       979.6298
 EAMBER (non-restraint)  =   -238788.5675
 EKCMT  =         0.0000  VIRIAL  =         0.0000  VOLUME     =    755676.1363
                                                    Density    =         1.0222
 ------------------------------------------------------------------------------

      R M S  F L U C T U A T I O N S

 NSTEP =  1000000   TIME(PS) =    1000.000  TEMP(K) =     1.20  PRESS =     0.0
 Etot   =       350.7488  EKtot   =       185.7210  EPtot      =       304.4054
 BOND   =        36.1571  ANGLE   =        58.3742  DIHED      =        29.5726
 1-4 NB =        19.5114  1-4 EEL =        50.6161  VDWAALS    =       234.6813
 EELEC  =       428.5046  EHBOND  =         0.0000  RESTRAINT  =        22.9030
 EAMBER (non-restraint)  =       281.5024
 EKCMT  =         0.0000  VIRIAL  =         0.0000  VOLUME     =      6434.4541
                                                    Density    =         0.0083
 ------------------------------------------------------------------------------
