-------------------------------------------------------
          Amber 20 PMEMD                              2020
          -------------------------------------------------------

  [-O]verwriting output

File Assignments:

 Here is the input file:

 &cntrl
  imin = 0, nstlim = 1000000, dt = 0.001,
  irest = 1, ntx = 5, ig = -1,
  temp0 = 298.0,
  ntc = 2, ntf = 2, tol = 0.00001,
  ntwx = 10000, ntwe = 0, ntwr = 1000, ntpr = 1000,
  cut = 8.0, iwrap = 0,
  ntt =3, gamma_ln=1.0, ntb = 2, ntp = 1,
  nscm = 0, barostat = 2,
  ntr=1, restraintmask="@CA,N,C,C1,C2,C3,C4,C5,C6,C7,C8,C9,C10,C11,C12,C13,C14,
  restraint_wt=.5,
  ioutfm=1, ntxo=2,
 /

Note: ig = -1. Setting random seed to   647278 based on wallclock time in
      microseconds.

--------------------------------------------------------------------------------
   1.  RESOURCE   USE:
--------------------------------------------------------------------------------

 getting box info from netcdf restart file
 NATOM  =   74819 NTYPES =      20 NBONH =   69058 MBONA  =    5696
 NTHETH =   12884 MTHETA =    7724 NPHIH =   25809 MPHIA  =   24828
 NHPARM =       0 NPARM  =       0 NNB   =  146936 NRES   =   21986
 NBONA  =    5696 NTHETA =    7724 NPHIA =   24828 NUMBND =      78
 NUMANG =     180 NPTRA  =     201 NATYP =      45 NPHB   =       0
 IFBOX  =       2 NMXRS  =      49 IFCAP =       0 NEXTRA =       0
 NCOPY  =       0

     BOX TYPE: TRUNCATED OCTAHEDRON

--------------------------------------------------------------------------------
   2.  CONTROL  DATA  FOR  THE  RUN
--------------------------------------------------------------------------------

default_name

General flags:
     imin    =       0, nmropt  =       0

Nature and format of input:
     ntx     =       5, irest   =       1, ntrx    =       1

Nature and format of output:
     ntxo    =       2, ntpr    =    1000, ntrx    =       1, ntwr    =    1000
     iwrap   =       0, ntwx    =   10000, ntwv    =       0, ntwe    =       0
     ioutfm  =       1, ntwprt  =       0, idecomp =       0, rbornstat=      0

Potential function:
     ntf     =       2, ntb     =       2, igb     =       0, nsnb    =      25
     ipol    =       0, gbsa    =       0, iesp    =       0
     dielc   =   1.00000, cut     =   8.00000, intdiel =   1.00000

Frozen or restrained atoms:
     ibelly  =       0, ntr     =       1
     restraint_wt =   0.50000

Molecular dynamics:
     nstlim  =   1000000, nscm    =         0, nrespa  =         1
     t       =   0.00000, dt      =   0.00100, vlimit  =  -1.00000

Langevin dynamics temperature regulation:
     ig      =  647278
     temp0   = 298.00000, tempi   =   0.00000, gamma_ln=   1.00000

Pressure regulation:
     ntp     =       1
     pres0   =   1.00000, comp    =  44.60000, taup    =   1.00000
     Monte-Carlo Barostat:
     mcbarint  =     100

SHAKE:
     ntc     =       2, jfastw  =       0
     tol     =   0.00001

Ewald parameters:
     verbose =       0, ew_type =       0, nbflag  =       1, use_pme =       1
     vdwmeth =       1, eedmeth =       1, netfrc  =       1
     Box X =   99.013   Box Y =   99.013   Box Z =   99.013
     Alpha =  109.471   Beta  =  109.471   Gamma =  109.471
     NFFT1 =  100       NFFT2 =  100       NFFT3 =  100
     Cutoff=    8.000   Tol   =0.100E-04
     Ewald Coefficient =  0.34864
     Interpolation order =    4

    LOADING THE CONSTRAINED ATOMS AS GROUPS

   5.  REFERENCE ATOM COORDINATES

  default_name
     Mask @CA,N,C,C1,C2,C3,C4,C5,C6,C7,C8,C9,C10,C11,C12,C13,C14,C15,C16,C17,C18,C19,C20,O1,O1A,O2A,O3A,O1B,O2B,PA,PB; matches  2112 atoms

--------------------------------------------------------------------------------
   3.  ATOMIC COORDINATES AND VELOCITIES
--------------------------------------------------------------------------------

default_name
 begin time read from input coords =  2000.000 ps

 Number of triangulated 3-point waters found:    21133

     Sum of charges from parm topology file =  -0.00000029
     Forcing neutrality...

--------------------------------------------------------------------------------
   4.  RESULTS
 NSTEP =     1000   TIME(PS) =    2001.000  TEMP(K) =   298.84  PRESS =     0.0
 Etot   =   -193753.7619  EKtot   =     46142.6445  EPtot      =   -239896.4064
 BOND   =      1991.6516  ANGLE   =      5842.1664  DIHED      =      9492.9065
 1-4 NB =      2678.1321  1-4 EEL =     28453.1187  VDWAALS    =     24147.0073
 EELEC  =   -312658.1243  EHBOND  =         0.0000  RESTRAINT  =       156.7353
 EAMBER (non-restraint)  =   -240053.1417
 EKCMT  =         0.0000  VIRIAL  =         0.0000  VOLUME     =    747226.3764
                                                    Density    =         1.0337
 ------------------------------------------------------------------------------

      A V E R A G E S   O V E R    1000 S T E P S

 NSTEP =  1000000   TIME(PS) =    3000.000  TEMP(K) =   298.11  PRESS =     0.0
 Etot   =   -194284.0343  EKtot   =     46029.5873  EPtot      =   -240313.6216
 BOND   =      2043.0137  ANGLE   =      5919.0234  DIHED      =      9481.6981
 1-4 NB =      2659.1323  1-4 EEL =     28392.3640  VDWAALS    =     24506.6989
 EELEC  =   -313541.7751  EHBOND  =         0.0000  RESTRAINT  =       226.2231
 EAMBER (non-restraint)  =   -240539.8447
 EKCMT  =         0.0000  VIRIAL  =         0.0000  VOLUME     =    743446.2353
                                                    Density    =         1.0389
 ------------------------------------------------------------------------------

      R M S  F L U C T U A T I O N S

 NSTEP =  1000000   TIME(PS) =    3000.000  TEMP(K) =     1.06  PRESS =     0.0
 Etot   =       293.0152  EKtot   =       163.8782  EPtot      =       233.2315
 BOND   =        36.3188  ANGLE   =        56.2098  DIHED      =        31.5809
 1-4 NB =        22.7922  1-4 EEL =        53.6400  VDWAALS    =       233.4083
 EELEC  =       362.9968  EHBOND  =         0.0000  RESTRAINT  =        13.5387
 EAMBER (non-restraint)  =       219.6928
 EKCMT  =         0.0000  VIRIAL  =         0.0000  VOLUME     =      1178.5593
                                                    Density    =         0.0016
 ------------------------------------------------------------------------------
