-------------------------------------------------------
          Amber 20 PMEMD                              2020
          -------------------------------------------------------

  [-O]verwriting output

File Assignments:

 Here is the input file:

 &cntrl
  imin = 0, nstlim = 1000000, dt = 0.001,
  irest = 0, ntx = 1, ig = -1,
  tempi = 298.0, temp0 = 298.0,
  ntc = 2, ntf = 2, tol = 0.00001,
  ntwx = 10000, ntwe = 0, ntwr = 1000, ntpr = 1000,
  cut = 8.0, iwrap = 0,
  ntt =3, gamma_ln=1.0, ntb = 2, ntp = 1,
  nscm = 0, barostat = 2,
  ntr=1, restraintmask="@CA,N,C,C1,C2,C3,C4,C5,C6,C7,C8,C9,C10,C11,C12,C13,C14,
  restraint_wt=50.
  ioutfm=1, ntxo=2,
 /

Note: ig = -1. Setting random seed to   595501 based on wallclock time in
      microseconds.

--------------------------------------------------------------------------------
   1.  RESOURCE   USE:
--------------------------------------------------------------------------------

 getting box info from netcdf restart file
 NATOM  =   74619 NTYPES =      20 NBONH =   68860 MBONA  =    5694
 NTHETH =   12876 MTHETA =    7720 NPHIH =   25797 MPHIA  =   24822
 NHPARM =       0 NPARM  =       0 NNB   =  146644 NRES   =   21918
 NBONA  =    5694 NTHETA =    7720 NPHIA =   24822 NUMBND =      78
 NUMANG =     180 NPTRA  =     201 NATYP =      45 NPHB   =       0
 IFBOX  =       2 NMXRS  =      36 IFCAP =       0 NEXTRA =       0
 NCOPY  =       0

     BOX TYPE: TRUNCATED OCTAHEDRON

--------------------------------------------------------------------------------
   2.  CONTROL  DATA  FOR  THE  RUN
--------------------------------------------------------------------------------

default_name

General flags:
     imin    =       0, nmropt  =       0

Nature and format of input:
     ntx     =       1, irest   =       0, ntrx    =       1

Nature and format of output:
     ntxo    =       2, ntpr    =    1000, ntrx    =       1, ntwr    =    1000
     iwrap   =       0, ntwx    =   10000, ntwv    =       0, ntwe    =       0
     ioutfm  =       1, ntwprt  =       0, idecomp =       0, rbornstat=      0

Potential function:
     ntf     =       2, ntb     =       2, igb     =       0, nsnb    =      25
     ipol    =       0, gbsa    =       0, iesp    =       0
     dielc   =   1.00000, cut     =   8.00000, intdiel =   1.00000

Frozen or restrained atoms:
     ibelly  =       0, ntr     =       1
     restraint_wt =  50.00000

Molecular dynamics:
     nstlim  =   1000000, nscm    =         0, nrespa  =         1
     t       =   0.00000, dt      =   0.00100, vlimit  =  -1.00000

Langevin dynamics temperature regulation:
     ig      =  595501
     temp0   = 298.00000, tempi   = 298.00000, gamma_ln=   1.00000

Pressure regulation:
     ntp     =       1
     pres0   =   1.00000, comp    =  44.60000, taup    =   1.00000
     Monte-Carlo Barostat:
     mcbarint  =     100

SHAKE:
     ntc     =       2, jfastw  =       0
     tol     =   0.00001

Ewald parameters:
     verbose =       0, ew_type =       0, nbflag  =       1, use_pme =       1
     vdwmeth =       1, eedmeth =       1, netfrc  =       1
     Box X =  101.682   Box Y =  101.682   Box Z =  101.682
     Alpha =  109.471   Beta  =  109.471   Gamma =  109.471
     NFFT1 =  108       NFFT2 =  108       NFFT3 =  108
     Cutoff=    8.000   Tol   =0.100E-04
     Ewald Coefficient =  0.34864
     Interpolation order =    4

    LOADING THE CONSTRAINED ATOMS AS GROUPS

   5.  REFERENCE ATOM COORDINATES

  default_name
     Mask @CA,N,C,C1,C2,C3,C4,C5,C6,C7,C8,C9,C10,C11,C12,C13,C14,C15,C16,C17,C18,C19,C20,O1,O1A,O2A,O3A,O1B,O2B,PA,PB; matches  2102 atoms

--------------------------------------------------------------------------------
   3.  ATOMIC COORDINATES AND VELOCITIES
--------------------------------------------------------------------------------

default_name
 begin time read from input coords =     0.000 ps

 Number of triangulated 3-point waters found:    21067

     Sum of charges from parm topology file =  -0.00000029
     Forcing neutrality...

--------------------------------------------------------------------------------
   4.  RESULTS
 NSTEP =        0   TIME(PS) =       0.000  TEMP(K) =   430.93  PRESS =     0.0
 Etot   =   -180532.3153  EKtot   =     66364.4409  EPtot      =   -246896.7562
 BOND   =       320.9682  ANGLE   =      2105.8622  DIHED      =      8508.0465
 1-4 NB =      2817.4443  1-4 EEL =     28326.4311  VDWAALS    =     17549.3587
 EELEC  =   -306524.8672  EHBOND  =         0.0000  RESTRAINT  =         0.0000
 EKCMT  =         0.0000  VIRIAL  =         0.0000  VOLUME     =    809296.4767
                                                    Density    =         0.9519
 ------------------------------------------------------------------------------

      A V E R A G E S   O V E R    1000 S T E P S

 NSTEP =  1000000   TIME(PS) =    1000.000  TEMP(K) =   297.96  PRESS =     0.0
 Etot   =   -191463.2990  EKtot   =     45887.0273  EPtot      =   -237350.3263
 BOND   =      1932.9674  ANGLE   =      5789.2629  DIHED      =      9546.9507
 1-4 NB =      2809.6569  1-4 EEL =     28058.1943  VDWAALS    =     24185.7683
 EELEC  =   -310647.6110  EHBOND  =         0.0000  RESTRAINT  =       974.4842
 EAMBER (non-restraint)  =   -238324.8106
 EKCMT  =         0.0000  VIRIAL  =         0.0000  VOLUME     =    753678.4678
                                                    Density    =         1.0222
 ------------------------------------------------------------------------------

      R M S  F L U C T U A T I O N S

 NSTEP =  1000000   TIME(PS) =    1000.000  TEMP(K) =     1.15  PRESS =     0.0
 Etot   =       355.5807  EKtot   =       177.6317  EPtot      =       315.6059
 BOND   =        36.0589  ANGLE   =        59.0709  DIHED      =        30.0811
 1-4 NB =        20.8350  1-4 EEL =        50.8384  VDWAALS    =       235.1738
 EELEC  =       443.9364  EHBOND  =         0.0000  RESTRAINT  =        22.4366
 EAMBER (non-restraint)  =       293.1694
 EKCMT  =         0.0000  VIRIAL  =         0.0000  VOLUME     =      6396.7572
                                                    Density    =         0.0083
 ------------------------------------------------------------------------------
