-------------------------------------------------------
          Amber 20 PMEMD                              2020
          -------------------------------------------------------

  [-O]verwriting output

File Assignments:

 Here is the input file:

 &cntrl
  imin = 0, nstlim = 1000000, dt = 0.001,
  irest = 1, ntx = 5, ig = -1,
  temp0 = 298.0,
  ntc = 2, ntf = 2, tol = 0.00001,
  ntwx = 10000, ntwe = 0, ntwr = 1000, ntpr = 1000,
  cut = 8.0, iwrap = 0,
  ntt =3, gamma_ln=1.0, ntb = 2, ntp = 1,
  nscm = 0, barostat = 2,
  ntr=1, restraintmask="@CA,N,C,C1,C2,C3,C4,C5,OC6,C7,C8,C9,C10,C11,C12,C13,C14
  restraint_wt=5.,
  ioutfm=1, ntxo=2,
 /

Note: ig = -1. Setting random seed to   181463 based on wallclock time in
      microseconds.

--------------------------------------------------------------------------------
   1.  RESOURCE   USE:
--------------------------------------------------------------------------------

 getting box info from netcdf restart file
 NATOM  =   74619 NTYPES =      20 NBONH =   68860 MBONA  =    5694
 NTHETH =   12876 MTHETA =    7720 NPHIH =   25797 MPHIA  =   24822
 NHPARM =       0 NPARM  =       0 NNB   =  146644 NRES   =   21918
 NBONA  =    5694 NTHETA =    7720 NPHIA =   24822 NUMBND =      78
 NUMANG =     180 NPTRA  =     201 NATYP =      45 NPHB   =       0
 IFBOX  =       2 NMXRS  =      36 IFCAP =       0 NEXTRA =       0
 NCOPY  =       0

     BOX TYPE: TRUNCATED OCTAHEDRON

--------------------------------------------------------------------------------
   2.  CONTROL  DATA  FOR  THE  RUN
--------------------------------------------------------------------------------

default_name

General flags:
     imin    =       0, nmropt  =       0

Nature and format of input:
     ntx     =       5, irest   =       1, ntrx    =       1

Nature and format of output:
     ntxo    =       2, ntpr    =    1000, ntrx    =       1, ntwr    =    1000
     iwrap   =       0, ntwx    =   10000, ntwv    =       0, ntwe    =       0
     ioutfm  =       1, ntwprt  =       0, idecomp =       0, rbornstat=      0

Potential function:
     ntf     =       2, ntb     =       2, igb     =       0, nsnb    =      25
     ipol    =       0, gbsa    =       0, iesp    =       0
     dielc   =   1.00000, cut     =   8.00000, intdiel =   1.00000

Frozen or restrained atoms:
     ibelly  =       0, ntr     =       1
     restraint_wt =   5.00000

Molecular dynamics:
     nstlim  =   1000000, nscm    =         0, nrespa  =         1
     t       =   0.00000, dt      =   0.00100, vlimit  =  -1.00000

Langevin dynamics temperature regulation:
     ig      =  181463
     temp0   = 298.00000, tempi   =   0.00000, gamma_ln=   1.00000

Pressure regulation:
     ntp     =       1
     pres0   =   1.00000, comp    =  44.60000, taup    =   1.00000
     Monte-Carlo Barostat:
     mcbarint  =     100

SHAKE:
     ntc     =       2, jfastw  =       0
     tol     =   0.00001

Ewald parameters:
     verbose =       0, ew_type =       0, nbflag  =       1, use_pme =       1
     vdwmeth =       1, eedmeth =       1, netfrc  =       1
     Box X =   99.226   Box Y =   99.226   Box Z =   99.226
     Alpha =  109.471   Beta  =  109.471   Gamma =  109.471
     NFFT1 =  100       NFFT2 =  100       NFFT3 =  100
     Cutoff=    8.000   Tol   =0.100E-04
     Ewald Coefficient =  0.34864
     Interpolation order =    4

    LOADING THE CONSTRAINED ATOMS AS GROUPS

   5.  REFERENCE ATOM COORDINATES

  default_name
     Mask @CA,N,C,C1,C2,C3,C4,C5,OC6,C7,C8,C9,C10,C11,C12,C13,C14,C15,C16,C17,C18,C19,C20,O1,O1A,O2A,O3A,O1B,O2B,PA,PB; matches  2100 atoms

--------------------------------------------------------------------------------
   3.  ATOMIC COORDINATES AND VELOCITIES
--------------------------------------------------------------------------------

default_name
 begin time read from input coords =  1000.000 ps

 Number of triangulated 3-point waters found:    21067

     Sum of charges from parm topology file =  -0.00000029
     Forcing neutrality...

--------------------------------------------------------------------------------
   4.  RESULTS
 NSTEP =     1000   TIME(PS) =    1001.000  TEMP(K) =   296.45  PRESS =     0.0
 Etot   =   -192945.8599  EKtot   =     45654.9375  EPtot      =   -238600.7974
 BOND   =      2023.5491  ANGLE   =      5818.2201  DIHED      =      9461.1413
 1-4 NB =      2689.6579  1-4 EEL =     27927.8407  VDWAALS    =     24112.0822
 EELEC  =   -311162.8727  EHBOND  =         0.0000  RESTRAINT  =       529.5840
 EAMBER (non-restraint)  =   -239130.3813
 EKCMT  =         0.0000  VIRIAL  =         0.0000  VOLUME     =    752054.2575
                                                    Density    =         1.0243
 ------------------------------------------------------------------------------

      A V E R A G E S   O V E R    1000 S T E P S

 NSTEP =  1000000   TIME(PS) =    2000.000  TEMP(K) =   298.05  PRESS =     0.0
 Etot   =   -192887.8892  EKtot   =     45901.1696  EPtot      =   -238789.0588
 BOND   =      2019.6935  ANGLE   =      5850.4615  DIHED      =      9493.7414
 1-4 NB =      2702.4011  1-4 EEL =     27856.1916  VDWAALS    =     24274.0551
 EELEC  =   -311565.5607  EHBOND  =         0.0000  RESTRAINT  =       579.9576
 EAMBER (non-restraint)  =   -239369.0164
 EKCMT  =         0.0000  VIRIAL  =         0.0000  VOLUME     =    746506.1153
                                                    Density    =         1.0320
 ------------------------------------------------------------------------------

      R M S  F L U C T U A T I O N S

 NSTEP =  1000000   TIME(PS) =    2000.000  TEMP(K) =     1.05  PRESS =     0.0
 Etot   =       285.2522  EKtot   =       161.7617  EPtot      =       234.2041
 BOND   =        37.7933  ANGLE   =        55.9939  DIHED      =        32.5392
 1-4 NB =        20.9258  1-4 EEL =        57.0958  VDWAALS    =       229.0193
 EELEC  =       368.0376  EHBOND  =         0.0000  RESTRAINT  =        26.2772
 EAMBER (non-restraint)  =       207.9269
 EKCMT  =         0.0000  VIRIAL  =         0.0000  VOLUME     =      1246.7036
                                                    Density    =         0.0017
 ------------------------------------------------------------------------------
