-------------------------------------------------------
          Amber 20 PMEMD                              2020
          -------------------------------------------------------

  [-O]verwriting output

File Assignments:

 Here is the input file:

 &cntrl
  imin = 0, nstlim = 1000000, dt = 0.001,
  irest = 1, ntx = 5, ig = -1,
  temp0 = 298.0,
  ntc = 2, ntf = 2, tol = 0.00001,
  ntwx = 10000, ntwe = 0, ntwr = 1000, ntpr = 1000,
  cut = 8.0, iwrap = 0,
  ntt =3, gamma_ln=1.0, ntb = 2, ntp = 1,
  nscm = 1000, barostat = 2,
  ioutfm=1, ntxo=2,
 /

Note: ig = -1. Setting random seed to   566774 based on wallclock time in
      microseconds.

--------------------------------------------------------------------------------
   1.  RESOURCE   USE:
--------------------------------------------------------------------------------

 getting box info from netcdf restart file
 NATOM  =   74619 NTYPES =      20 NBONH =   68860 MBONA  =    5694
 NTHETH =   12876 MTHETA =    7720 NPHIH =   25797 MPHIA  =   24822
 NHPARM =       0 NPARM  =       0 NNB   =  146644 NRES   =   21918
 NBONA  =    5694 NTHETA =    7720 NPHIA =   24822 NUMBND =      78
 NUMANG =     180 NPTRA  =     201 NATYP =      45 NPHB   =       0
 IFBOX  =       2 NMXRS  =      36 IFCAP =       0 NEXTRA =       0
 NCOPY  =       0

     BOX TYPE: TRUNCATED OCTAHEDRON

--------------------------------------------------------------------------------
   2.  CONTROL  DATA  FOR  THE  RUN
--------------------------------------------------------------------------------

default_name

General flags:
     imin    =       0, nmropt  =       0

Nature and format of input:
     ntx     =       5, irest   =       1, ntrx    =       1

Nature and format of output:
     ntxo    =       2, ntpr    =    1000, ntrx    =       1, ntwr    =    1000
     iwrap   =       0, ntwx    =   10000, ntwv    =       0, ntwe    =       0
     ioutfm  =       1, ntwprt  =       0, idecomp =       0, rbornstat=      0

Potential function:
     ntf     =       2, ntb     =       2, igb     =       0, nsnb    =      25
     ipol    =       0, gbsa    =       0, iesp    =       0
     dielc   =   1.00000, cut     =   8.00000, intdiel =   1.00000

Frozen or restrained atoms:
     ibelly  =       0, ntr     =       0

Molecular dynamics:
     nstlim  =   1000000, nscm    =      1000, nrespa  =         1
     t       =   0.00000, dt      =   0.00100, vlimit  =  -1.00000

Langevin dynamics temperature regulation:
     ig      =  566774
     temp0   = 298.00000, tempi   =   0.00000, gamma_ln=   1.00000

Pressure regulation:
     ntp     =       1
     pres0   =   1.00000, comp    =  44.60000, taup    =   1.00000
     Monte-Carlo Barostat:
     mcbarint  =     100

SHAKE:
     ntc     =       2, jfastw  =       0
     tol     =   0.00001

Ewald parameters:
     verbose =       0, ew_type =       0, nbflag  =       1, use_pme =       1
     vdwmeth =       1, eedmeth =       1, netfrc  =       1
     Box X =   98.840   Box Y =   98.840   Box Z =   98.840
     Alpha =  109.471   Beta  =  109.471   Gamma =  109.471
     NFFT1 =  100       NFFT2 =  100       NFFT3 =  100
     Cutoff=    8.000   Tol   =0.100E-04
     Ewald Coefficient =  0.34864
     Interpolation order =    4

--------------------------------------------------------------------------------
   3.  ATOMIC COORDINATES AND VELOCITIES
--------------------------------------------------------------------------------

default_name
 begin time read from input coords =  3000.000 ps

 Number of triangulated 3-point waters found:    21067

     Sum of charges from parm topology file =  -0.00000029
     Forcing neutrality...

--------------------------------------------------------------------------------
   4.  RESULTS
 NSTEP =     1000   TIME(PS) =    3001.000  TEMP(K) =   299.28  PRESS =     0.0
 Etot   =   -194100.3947  EKtot   =     46089.6875  EPtot      =   -240190.0822
 BOND   =      2034.0701  ANGLE   =      5837.8798  DIHED      =      9390.4187
 1-4 NB =      2664.4142  1-4 EEL =     27854.8730  VDWAALS    =     24311.5484
 EELEC  =   -312283.2865  EHBOND  =         0.0000  RESTRAINT  =         0.0000
 EKCMT  =         0.0000  VIRIAL  =         0.0000  VOLUME     =    743319.7603
                                                    Density    =         1.0364
 ------------------------------------------------------------------------------

      A V E R A G E S   O V E R    1000 S T E P S

 NSTEP =  1000000   TIME(PS) =    4000.000  TEMP(K) =   298.02  PRESS =     0.0
 Etot   =   -194529.6816  EKtot   =     45896.8971  EPtot      =   -240426.5787
 BOND   =      2057.4939  ANGLE   =      5868.9740  DIHED      =      9399.1407
 1-4 NB =      2640.1694  1-4 EEL =     27775.4897  VDWAALS    =     24567.3821
 EELEC  =   -312735.2286  EHBOND  =         0.0000  RESTRAINT  =         0.0000
 EKCMT  =         0.0000  VIRIAL  =         0.0000  VOLUME     =    739318.3149
                                                    Density    =         1.0420
 ------------------------------------------------------------------------------

      R M S  F L U C T U A T I O N S

 NSTEP =  1000000   TIME(PS) =    4000.000  TEMP(K) =     1.02  PRESS =     0.0
 Etot   =       269.6768  EKtot   =       156.8583  EPtot      =       229.3784
 BOND   =        39.4916  ANGLE   =        56.8790  DIHED      =        33.1124
 1-4 NB =        21.4757  1-4 EEL =        54.5026  VDWAALS    =       233.4425
 EELEC  =       365.2083  EHBOND  =         0.0000  RESTRAINT  =         0.0000
 EKCMT  =         0.0000  VIRIAL  =         0.0000  VOLUME     =      1291.8391
                                                    Density    =         0.0018
 ------------------------------------------------------------------------------
