-------------------------------------------------------
          Amber 20 PMEMD                              2020
          -------------------------------------------------------

  [-O]verwriting output

File Assignments:

 Here is the input file:

 &cntrl
  imin = 0, nstlim = 1000000, dt = 0.001,
  irest = 1, ntx = 5, ig = -1,
  temp0 = 298.0,
  ntc = 2, ntf = 2, tol = 0.00001,
  ntwx = 10000, ntwe = 0, ntwr = 1000, ntpr = 1000,
  cut = 8.0, iwrap = 0,
  ntt =3,  gamma_ln=1.0, ntb = 2, ntp = 1,
  nscm = 0, barostat = 2,
  ntr=1, restraintmask=':1-688', restraint_wt=50.
  ioutfm=1, ntxo=2,
 /

Note: ig = -1. Setting random seed to   694174 based on wallclock time in
      microseconds.

--------------------------------------------------------------------------------
   1.  RESOURCE   USE:
--------------------------------------------------------------------------------

 getting box info from netcdf restart file
 NATOM  =   74832 NTYPES =      20 NBONH =   69083 MBONA  =    5682
 NTHETH =   12834 MTHETA =    7704 NPHIH =   25715 MPHIA  =   24794
 NHPARM =       0 NPARM  =       0 NNB   =  146796 NRES   =   22001
 NBONA  =    5682 NTHETA =    7704 NPHIA =   24794 NUMBND =      78
 NUMANG =     180 NPTRA  =     201 NATYP =      45 NPHB   =       0
 IFBOX  =       2 NMXRS  =      36 IFCAP =       0 NEXTRA =       0
 NCOPY  =       0

     BOX TYPE: TRUNCATED OCTAHEDRON

--------------------------------------------------------------------------------
   2.  CONTROL  DATA  FOR  THE  RUN
--------------------------------------------------------------------------------

default_name

General flags:
     imin    =       0, nmropt  =       0

Nature and format of input:
     ntx     =       5, irest   =       1, ntrx    =       1

Nature and format of output:
     ntxo    =       2, ntpr    =    1000, ntrx    =       1, ntwr    =    1000
     iwrap   =       0, ntwx    =   10000, ntwv    =       0, ntwe    =       0
     ioutfm  =       1, ntwprt  =       0, idecomp =       0, rbornstat=      0

Potential function:
     ntf     =       2, ntb     =       2, igb     =       0, nsnb    =      25
     ipol    =       0, gbsa    =       0, iesp    =       0
     dielc   =   1.00000, cut     =   8.00000, intdiel =   1.00000

Frozen or restrained atoms:
     ibelly  =       0, ntr     =       1
     restraint_wt =  50.00000

Molecular dynamics:
     nstlim  =   1000000, nscm    =         0, nrespa  =         1
     t       =   0.00000, dt      =   0.00100, vlimit  =  -1.00000

Langevin dynamics temperature regulation:
     ig      =  694174
     temp0   = 298.00000, tempi   =   0.00000, gamma_ln=   1.00000

Pressure regulation:
     ntp     =       1
     pres0   =   1.00000, comp    =  44.60000, taup    =   1.00000
     Monte-Carlo Barostat:
     mcbarint  =     100

SHAKE:
     ntc     =       2, jfastw  =       0
     tol     =   0.00001

Ewald parameters:
     verbose =       0, ew_type =       0, nbflag  =       1, use_pme =       1
     vdwmeth =       1, eedmeth =       1, netfrc  =       1
     Box X =  102.283   Box Y =  102.283   Box Z =  102.283
     Alpha =  109.471   Beta  =  109.471   Gamma =  109.471
     NFFT1 =  108       NFFT2 =  108       NFFT3 =  108
     Cutoff=    8.000   Tol   =0.100E-04
     Ewald Coefficient =  0.34864
     Interpolation order =    4

    LOADING THE CONSTRAINED ATOMS AS GROUPS

   5.  REFERENCE ATOM COORDINATES

  default_name
     Mask :1-688; matches 11223 atoms

--------------------------------------------------------------------------------
   3.  ATOMIC COORDINATES AND VELOCITIES
--------------------------------------------------------------------------------

default_name
 begin time read from input coords =  2000.000 ps

 Number of triangulated 3-point waters found:    21148

     Sum of charges from parm topology file =  -0.00000030
     Forcing neutrality...

--------------------------------------------------------------------------------
   4.  RESULTS
 NSTEP =     1000   TIME(PS) =    2001.000  TEMP(K) =   294.47  PRESS =     0.0
 Etot   =   -185977.5764  EKtot   =     45472.0625  EPtot      =   -231449.6389
 BOND   =      1536.1044  ANGLE   =      4516.3656  DIHED      =      8890.3056
 1-4 NB =      3029.0621  1-4 EEL =     28935.6954  VDWAALS    =     24872.2599
 EELEC  =   -307463.9102  EHBOND  =         0.0000  RESTRAINT  =      4234.4783
 EAMBER (non-restraint)  =   -235684.1172
 EKCMT  =         0.0000  VIRIAL  =         0.0000  VOLUME     =    822710.8256
                                                    Density    =         0.9391
 ------------------------------------------------------------------------------

      A V E R A G E S   O V E R    1000 S T E P S

 NSTEP =  1000000   TIME(PS) =    3000.000  TEMP(K) =   298.10  PRESS =     0.0
 Etot   =   -184613.0339  EKtot   =     46031.2503  EPtot      =   -230644.2842
 BOND   =      1693.1289  ANGLE   =      4762.0064  DIHED      =      8910.7593
 1-4 NB =      3047.5102  1-4 EEL =     28982.2538  VDWAALS    =     24895.9736
 EELEC  =   -307596.4395  EHBOND  =         0.0000  RESTRAINT  =      4660.5230
 EAMBER (non-restraint)  =   -235304.8072
 EKCMT  =         0.0000  VIRIAL  =         0.0000  VOLUME     =    812825.4043
                                                    Density    =         0.9505
 ------------------------------------------------------------------------------

      R M S  F L U C T U A T I O N S

 NSTEP =  1000000   TIME(PS) =    3000.000  TEMP(K) =     1.05  PRESS =     0.0
 Etot   =       280.7652  EKtot   =       162.5987  EPtot      =       231.6762
 BOND   =        30.4853  ANGLE   =        41.3949  DIHED      =        18.3660
 1-4 NB =        13.6999  1-4 EEL =        29.9819  VDWAALS    =       229.6894
 EELEC  =       368.7737  EHBOND  =         0.0000  RESTRAINT  =        49.5237
 EAMBER (non-restraint)  =       182.1525
 EKCMT  =         0.0000  VIRIAL  =         0.0000  VOLUME     =      1431.9937
                                                    Density    =         0.0017
 ------------------------------------------------------------------------------
