-------------------------------------------------------
          Amber 20 PMEMD                              2020
          -------------------------------------------------------

  [-O]verwriting output

File Assignments:

 Here is the input file:

 &cntrl
  imin = 0, nstlim = 1000000, dt = 0.001,
  irest = 0, ntx = 1, ig = -1,
  tempi = 298.0, temp0 = 298.0,
  ntc = 2, ntf = 2, tol = 0.00001,
  ntwx = 10000, ntwe = 0, ntwr = 1000, ntpr = 1000,
  cut = 8.0, iwrap = 0,
  ntt =3, gamma_ln=1.0, ntb = 2, ntp = 1,
  nscm = 0, barostat = 2,
  ntr=1, restraintmask="@CA,N,C,C1,C2,C3,C4,C5,C6,C7,C8,C9,C10,C11,C12,C13,C14,
  restraint_wt=50.
  ioutfm=1, ntxo=2,
 /

Note: ig = -1. Setting random seed to   357325 based on wallclock time in
      microseconds.

--------------------------------------------------------------------------------
   1.  RESOURCE   USE:
--------------------------------------------------------------------------------

 getting box info from netcdf restart file
 NATOM  =   74832 NTYPES =      20 NBONH =   69083 MBONA  =    5682
 NTHETH =   12834 MTHETA =    7704 NPHIH =   25715 MPHIA  =   24794
 NHPARM =       0 NPARM  =       0 NNB   =  146796 NRES   =   22001
 NBONA  =    5682 NTHETA =    7704 NPHIA =   24794 NUMBND =      78
 NUMANG =     180 NPTRA  =     201 NATYP =      45 NPHB   =       0
 IFBOX  =       2 NMXRS  =      36 IFCAP =       0 NEXTRA =       0
 NCOPY  =       0

     BOX TYPE: TRUNCATED OCTAHEDRON

--------------------------------------------------------------------------------
   2.  CONTROL  DATA  FOR  THE  RUN
--------------------------------------------------------------------------------

default_name

General flags:
     imin    =       0, nmropt  =       0

Nature and format of input:
     ntx     =       1, irest   =       0, ntrx    =       1

Nature and format of output:
     ntxo    =       2, ntpr    =    1000, ntrx    =       1, ntwr    =    1000
     iwrap   =       0, ntwx    =   10000, ntwv    =       0, ntwe    =       0
     ioutfm  =       1, ntwprt  =       0, idecomp =       0, rbornstat=      0

Potential function:
     ntf     =       2, ntb     =       2, igb     =       0, nsnb    =      25
     ipol    =       0, gbsa    =       0, iesp    =       0
     dielc   =   1.00000, cut     =   8.00000, intdiel =   1.00000

Frozen or restrained atoms:
     ibelly  =       0, ntr     =       1
     restraint_wt =  50.00000

Molecular dynamics:
     nstlim  =   1000000, nscm    =         0, nrespa  =         1
     t       =   0.00000, dt      =   0.00100, vlimit  =  -1.00000

Langevin dynamics temperature regulation:
     ig      =  357325
     temp0   = 298.00000, tempi   = 298.00000, gamma_ln=   1.00000

Pressure regulation:
     ntp     =       1
     pres0   =   1.00000, comp    =  44.60000, taup    =   1.00000
     Monte-Carlo Barostat:
     mcbarint  =     100

SHAKE:
     ntc     =       2, jfastw  =       0
     tol     =   0.00001

Ewald parameters:
     verbose =       0, ew_type =       0, nbflag  =       1, use_pme =       1
     vdwmeth =       1, eedmeth =       1, netfrc  =       1
     Box X =  101.893   Box Y =  101.893   Box Z =  101.893
     Alpha =  109.471   Beta  =  109.471   Gamma =  109.471
     NFFT1 =  108       NFFT2 =  108       NFFT3 =  108
     Cutoff=    8.000   Tol   =0.100E-04
     Ewald Coefficient =  0.34864
     Interpolation order =    4

    LOADING THE CONSTRAINED ATOMS AS GROUPS

   5.  REFERENCE ATOM COORDINATES

  default_name
     Mask @CA,N,C,C1,C2,C3,C4,C5,C6,C7,C8,C9,C10,C11,C12,C13,C14,C15,C16,C17,C18,C19,C20,O1,O1A,O2A,O3A,O1B,O2B,PA,PB; matches  2102 atoms

--------------------------------------------------------------------------------
   3.  ATOMIC COORDINATES AND VELOCITIES
--------------------------------------------------------------------------------

default_name
 begin time read from input coords =     0.000 ps

 Number of triangulated 3-point waters found:    21148

     Sum of charges from parm topology file =  -0.00000030
     Forcing neutrality...

--------------------------------------------------------------------------------
   4.  RESULTS
 NSTEP =        0   TIME(PS) =       0.000  TEMP(K) =   429.55  PRESS =     0.0
 Etot   =   -181103.7840  EKtot   =     66330.2799  EPtot      =   -247434.0639
 BOND   =       328.5295  ANGLE   =      2110.3514  DIHED      =      8495.5252
 1-4 NB =      2797.5061  1-4 EEL =     28853.9576  VDWAALS    =     17165.2582
 EELEC  =   -307185.1918  EHBOND  =         0.0000  RESTRAINT  =         0.0000
 EKCMT  =         0.0000  VIRIAL  =         0.0000  VOLUME     =    814349.1230
                                                    Density    =         0.9487
 ------------------------------------------------------------------------------

      A V E R A G E S   O V E R    1000 S T E P S

 NSTEP =  1000000   TIME(PS) =    1000.000  TEMP(K) =   298.05  PRESS =     0.0
 Etot   =   -191990.7399  EKtot   =     46024.3929  EPtot      =   -238015.1328
 BOND   =      1926.4220  ANGLE   =      5776.3267  DIHED      =      9521.8113
 1-4 NB =      2797.9186  1-4 EEL =     28634.5485  VDWAALS    =     24301.2368
 EELEC  =   -311951.9377  EHBOND  =         0.0000  RESTRAINT  =       978.5409
 EAMBER (non-restraint)  =   -238993.6738
 EKCMT  =         0.0000  VIRIAL  =         0.0000  VOLUME     =    755957.9231
                                                    Density    =         1.0221
 ------------------------------------------------------------------------------

      R M S  F L U C T U A T I O N S

 NSTEP =  1000000   TIME(PS) =    1000.000  TEMP(K) =     1.17  PRESS =     0.0
 Etot   =       370.5146  EKtot   =       180.4777  EPtot      =       325.1655
 BOND   =        36.0369  ANGLE   =        58.1762  DIHED      =        32.9572
 1-4 NB =        20.9046  1-4 EEL =        45.8013  VDWAALS    =       236.4462
 EELEC  =       458.8279  EHBOND  =         0.0000  RESTRAINT  =        22.1654
 EAMBER (non-restraint)  =       303.0002
 EKCMT  =         0.0000  VIRIAL  =         0.0000  VOLUME     =      6533.7429
                                                    Density    =         0.0084
 ------------------------------------------------------------------------------
