-------------------------------------------------------
          Amber 20 PMEMD                              2020
          -------------------------------------------------------

  [-O]verwriting output

File Assignments:

 Here is the input file:

 &cntrl
  imin = 0, nstlim = 1000000, dt = 0.001,
  irest = 1, ntx = 5, ig = -1,
  temp0 = 298.0,
  ntc = 2, ntf = 2, tol = 0.00001,
  ntwx = 10000, ntwe = 0, ntwr = 1000, ntpr = 1000,
  cut = 8.0, iwrap = 0,
  ntt =3, gamma_ln=1.0, ntb = 2, ntp = 1,
  nscm = 0, barostat = 2,
  ntr=1, restraintmask="@CA,N,C,C1,C2,C3,C4,C5,C6,C7,C8,C9,C10,C11,C12,C13,C14,
  restraint_wt=.5,
  ioutfm=1, ntxo=2,
 /

Note: ig = -1. Setting random seed to   597046 based on wallclock time in
      microseconds.

--------------------------------------------------------------------------------
   1.  RESOURCE   USE:
--------------------------------------------------------------------------------

 getting box info from netcdf restart file
 NATOM  =   74855 NTYPES =      20 NBONH =   69096 MBONA  =    5692
 NTHETH =   12870 MTHETA =    7716 NPHIH =   25795 MPHIA  =   24812
 NHPARM =       0 NPARM  =       0 NNB   =  146932 NRES   =   22000
 NBONA  =    5692 NTHETA =    7716 NPHIA =   24812 NUMBND =      78
 NUMANG =     180 NPTRA  =     201 NATYP =      45 NPHB   =       0
 IFBOX  =       2 NMXRS  =      49 IFCAP =       0 NEXTRA =       0
 NCOPY  =       0

     BOX TYPE: TRUNCATED OCTAHEDRON

--------------------------------------------------------------------------------
   2.  CONTROL  DATA  FOR  THE  RUN
--------------------------------------------------------------------------------

default_name

General flags:
     imin    =       0, nmropt  =       0

Nature and format of input:
     ntx     =       5, irest   =       1, ntrx    =       1

Nature and format of output:
     ntxo    =       2, ntpr    =    1000, ntrx    =       1, ntwr    =    1000
     iwrap   =       0, ntwx    =   10000, ntwv    =       0, ntwe    =       0
     ioutfm  =       1, ntwprt  =       0, idecomp =       0, rbornstat=      0

Potential function:
     ntf     =       2, ntb     =       2, igb     =       0, nsnb    =      25
     ipol    =       0, gbsa    =       0, iesp    =       0
     dielc   =   1.00000, cut     =   8.00000, intdiel =   1.00000

Frozen or restrained atoms:
     ibelly  =       0, ntr     =       1
     restraint_wt =   0.50000

Molecular dynamics:
     nstlim  =   1000000, nscm    =         0, nrespa  =         1
     t       =   0.00000, dt      =   0.00100, vlimit  =  -1.00000

Langevin dynamics temperature regulation:
     ig      =  597046
     temp0   = 298.00000, tempi   =   0.00000, gamma_ln=   1.00000

Pressure regulation:
     ntp     =       1
     pres0   =   1.00000, comp    =  44.60000, taup    =   1.00000
     Monte-Carlo Barostat:
     mcbarint  =     100

SHAKE:
     ntc     =       2, jfastw  =       0
     tol     =   0.00001

Ewald parameters:
     verbose =       0, ew_type =       0, nbflag  =       1, use_pme =       1
     vdwmeth =       1, eedmeth =       1, netfrc  =       1
     Box X =   99.115   Box Y =   99.115   Box Z =   99.115
     Alpha =  109.471   Beta  =  109.471   Gamma =  109.471
     NFFT1 =  100       NFFT2 =  100       NFFT3 =  100
     Cutoff=    8.000   Tol   =0.100E-04
     Ewald Coefficient =  0.34864
     Interpolation order =    4

    LOADING THE CONSTRAINED ATOMS AS GROUPS

   5.  REFERENCE ATOM COORDINATES

  default_name
     Mask @CA,N,C,C1,C2,C3,C4,C5,C6,C7,C8,C9,C10,C11,C12,C13,C14,C15,C16,C17,C18,C19,C20,O1,O1A,O2A,O3A,O1B,O2B,PA,PB; matches  2112 atoms

--------------------------------------------------------------------------------
   3.  ATOMIC COORDINATES AND VELOCITIES
--------------------------------------------------------------------------------

default_name
 begin time read from input coords =  2000.000 ps

 Number of triangulated 3-point waters found:    21147

     Sum of charges from parm topology file =  -0.00000030
     Forcing neutrality...

--------------------------------------------------------------------------------
   4.  RESULTS
 NSTEP =     1000   TIME(PS) =    2001.000  TEMP(K) =   295.55  PRESS =     0.0
 Etot   =   -194359.3909  EKtot   =     45653.9609  EPtot      =   -240013.3519
 BOND   =      2063.3495  ANGLE   =      5900.1719  DIHED      =      9511.7706
 1-4 NB =      2636.9261  1-4 EEL =     28290.4469  VDWAALS    =     24240.0817
 EELEC  =   -312818.6425  EHBOND  =         0.0000  RESTRAINT  =       162.5438
 EAMBER (non-restraint)  =   -240175.8957
 EKCMT  =         0.0000  VIRIAL  =         0.0000  VOLUME     =    749345.8769
                                                    Density    =         1.0313
 ------------------------------------------------------------------------------

      A V E R A G E S   O V E R    1000 S T E P S

 NSTEP =  1000000   TIME(PS) =    3000.000  TEMP(K) =   298.03  PRESS =     0.0
 Etot   =   -194360.4127  EKtot   =     46038.2021  EPtot      =   -240398.6148
 BOND   =      2043.0643  ANGLE   =      5887.4872  DIHED      =      9467.3512
 1-4 NB =      2659.7544  1-4 EEL =     28363.7611  VDWAALS    =     24534.0992
 EELEC  =   -313587.3326  EHBOND  =         0.0000  RESTRAINT  =       233.2003
 EAMBER (non-restraint)  =   -240631.8151
 EKCMT  =         0.0000  VIRIAL  =         0.0000  VOLUME     =    744020.9127
                                                    Density    =         1.0386
 ------------------------------------------------------------------------------

      R M S  F L U C T U A T I O N S

 NSTEP =  1000000   TIME(PS) =    3000.000  TEMP(K) =     1.06  PRESS =     0.0
 Etot   =       279.2126  EKtot   =       164.4942  EPtot      =       230.8434
 BOND   =        36.0787  ANGLE   =        56.1359  DIHED      =        31.0798
 1-4 NB =        21.5721  1-4 EEL =        56.7267  VDWAALS    =       235.6782
 EELEC  =       363.0069  EHBOND  =         0.0000  RESTRAINT  =        12.5541
 EAMBER (non-restraint)  =       218.2893
 EKCMT  =         0.0000  VIRIAL  =         0.0000  VOLUME     =      1262.2189
                                                    Density    =         0.0018
 ------------------------------------------------------------------------------
