-------------------------------------------------------
          Amber 20 PMEMD                              2020
          -------------------------------------------------------

  [-O]verwriting output

File Assignments:

 Here is the input file:

 &cntrl
  imin = 0, nstlim = 1000000, dt = 0.001,
  irest = 0, ntx = 1, ig = -1,
  tempi = 298.0, temp0 = 298.0,
  ntc = 2, ntf = 2, tol = 0.00001,
  ntwx = 10000, ntwe = 0, ntwr = 1000, ntpr = 1000,
  cut = 8.0, iwrap = 0,
  ntt =3, gamma_ln=1.0, ntb = 2, ntp = 1,
  nscm = 0, barostat = 2,
  ntr=1, restraintmask="@CA,N,C,C1,C2,C3,C4,C5,C6,C7,C8,C9,C10,C11,C12,C13,C14,
  restraint_wt=50.
  ioutfm=1, ntxo=2,
 /

Note: ig = -1. Setting random seed to   318460 based on wallclock time in
      microseconds.

--------------------------------------------------------------------------------
   1.  RESOURCE   USE:
--------------------------------------------------------------------------------

 getting box info from netcdf restart file
 NATOM  =   74599 NTYPES =      20 NBONH =   68849 MBONA  =    5685
 NTHETH =   12838 MTHETA =    7710 NPHIH =   25713 MPHIA  =   24808
 NHPARM =       0 NPARM  =       0 NNB   =  146512 NRES   =   21920
 NBONA  =    5685 NTHETA =    7710 NPHIA =   24808 NUMBND =      78
 NUMANG =     181 NPTRA  =     201 NATYP =      45 NPHB   =       0
 IFBOX  =       2 NMXRS  =      24 IFCAP =       0 NEXTRA =       0
 NCOPY  =       0

     BOX TYPE: TRUNCATED OCTAHEDRON

--------------------------------------------------------------------------------
   2.  CONTROL  DATA  FOR  THE  RUN
--------------------------------------------------------------------------------

default_name

General flags:
     imin    =       0, nmropt  =       0

Nature and format of input:
     ntx     =       1, irest   =       0, ntrx    =       1

Nature and format of output:
     ntxo    =       2, ntpr    =    1000, ntrx    =       1, ntwr    =    1000
     iwrap   =       0, ntwx    =   10000, ntwv    =       0, ntwe    =       0
     ioutfm  =       1, ntwprt  =       0, idecomp =       0, rbornstat=      0

Potential function:
     ntf     =       2, ntb     =       2, igb     =       0, nsnb    =      25
     ipol    =       0, gbsa    =       0, iesp    =       0
     dielc   =   1.00000, cut     =   8.00000, intdiel =   1.00000

Frozen or restrained atoms:
     ibelly  =       0, ntr     =       1
     restraint_wt =  50.00000

Molecular dynamics:
     nstlim  =   1000000, nscm    =         0, nrespa  =         1
     t       =   0.00000, dt      =   0.00100, vlimit  =  -1.00000

Langevin dynamics temperature regulation:
     ig      =  318460
     temp0   = 298.00000, tempi   = 298.00000, gamma_ln=   1.00000

Pressure regulation:
     ntp     =       1
     pres0   =   1.00000, comp    =  44.60000, taup    =   1.00000
     Monte-Carlo Barostat:
     mcbarint  =     100

SHAKE:
     ntc     =       2, jfastw  =       0
     tol     =   0.00001

Ewald parameters:
     verbose =       0, ew_type =       0, nbflag  =       1, use_pme =       1
     vdwmeth =       1, eedmeth =       1, netfrc  =       1
     Box X =  101.792   Box Y =  101.792   Box Z =  101.792
     Alpha =  109.471   Beta  =  109.471   Gamma =  109.471
     NFFT1 =  108       NFFT2 =  108       NFFT3 =  108
     Cutoff=    8.000   Tol   =0.100E-04
     Ewald Coefficient =  0.34864
     Interpolation order =    4

    LOADING THE CONSTRAINED ATOMS AS GROUPS

   5.  REFERENCE ATOM COORDINATES

  default_name
     Mask @CA,N,C,C1,C2,C3,C4,C5,C6,C7,C8,C9,C10,C11,C12,C13,C14,C15,C16,C17,C18,C19,C20,O1,O1A,O2A,O3A,O1B,O2B,PA,PB; matches  2092 atoms

--------------------------------------------------------------------------------
   3.  ATOMIC COORDINATES AND VELOCITIES
--------------------------------------------------------------------------------

default_name
 begin time read from input coords =     0.000 ps

 Number of triangulated 3-point waters found:    21069

     Sum of charges from parm topology file =  -0.00000029
     Forcing neutrality...

--------------------------------------------------------------------------------
   4.  RESULTS
 NSTEP =        0   TIME(PS) =       0.000  TEMP(K) =   430.33  PRESS =     0.0
 Etot   =   -180675.5841  EKtot   =     66252.3502  EPtot      =   -246927.9343
 BOND   =       311.0022  ANGLE   =      2124.2810  DIHED      =      8526.4814
 1-4 NB =      2790.5603  1-4 EEL =     28355.6691  VDWAALS    =     16951.2068
 EELEC  =   -305987.1351  EHBOND  =         0.0000  RESTRAINT  =         0.0000
 EKCMT  =         0.0000  VIRIAL  =         0.0000  VOLUME     =    811937.9712
                                                    Density    =         0.9486
 ------------------------------------------------------------------------------

      A V E R A G E S   O V E R    1000 S T E P S

 NSTEP =  1000000   TIME(PS) =    1000.000  TEMP(K) =   297.94  PRESS =     0.0
 Etot   =   -191601.8863  EKtot   =     45869.9336  EPtot      =   -237471.8199
 BOND   =      1931.0082  ANGLE   =      5779.7070  DIHED      =      9547.2567
 1-4 NB =      2785.1936  1-4 EEL =     28161.2518  VDWAALS    =     24203.7983
 EELEC  =   -310860.8701  EHBOND  =         0.0000  RESTRAINT  =       980.8345
 EAMBER (non-restraint)  =   -238452.6544
 EKCMT  =         0.0000  VIRIAL  =         0.0000  VOLUME     =    751956.9664
                                                    Density    =         1.0243
 ------------------------------------------------------------------------------

      R M S  F L U C T U A T I O N S

 NSTEP =  1000000   TIME(PS) =    1000.000  TEMP(K) =     1.20  PRESS =     0.0
 Etot   =       367.4418  EKtot   =       184.2177  EPtot      =       315.0049
 BOND   =        35.9341  ANGLE   =        56.4289  DIHED      =        31.3845
 1-4 NB =        20.4233  1-4 EEL =        55.2815  VDWAALS    =       240.9708
 EELEC  =       447.8111  EHBOND  =         0.0000  RESTRAINT  =        22.1395
 EAMBER (non-restraint)  =       292.8654
 EKCMT  =         0.0000  VIRIAL  =         0.0000  VOLUME     =      5709.8900
                                                    Density    =         0.0074
 ------------------------------------------------------------------------------
