-------------------------------------------------------
          Amber 20 PMEMD                              2020
          -------------------------------------------------------

  [-O]verwriting output

File Assignments:

 Here is the input file:

 &cntrl
  imin = 0, nstlim = 1000000, dt = 0.001,
  irest = 1, ntx = 5, ig = -1,
  temp0 = 298.0,
  ntc = 2, ntf = 2, tol = 0.00001,
  ntwx = 10000, ntwe = 0, ntwr = 1000, ntpr = 1000,
  cut = 8.0, iwrap = 0,
  ntt =3, gamma_ln=1.0, ntb = 2, ntp = 1,
  nscm = 0, barostat = 2,
  ntr=1, restraintmask="@CA,N,C,C1,C2,C3,C4,C5,OC6,C7,C8,C9,C10,C11,C12,C13,C14
  restraint_wt=5.,
  ioutfm=1, ntxo=2,
 /

Note: ig = -1. Setting random seed to   584436 based on wallclock time in
      microseconds.

--------------------------------------------------------------------------------
   1.  RESOURCE   USE:
--------------------------------------------------------------------------------

 getting box info from netcdf restart file
 NATOM  =   74599 NTYPES =      20 NBONH =   68849 MBONA  =    5685
 NTHETH =   12838 MTHETA =    7710 NPHIH =   25713 MPHIA  =   24808
 NHPARM =       0 NPARM  =       0 NNB   =  146512 NRES   =   21920
 NBONA  =    5685 NTHETA =    7710 NPHIA =   24808 NUMBND =      78
 NUMANG =     181 NPTRA  =     201 NATYP =      45 NPHB   =       0
 IFBOX  =       2 NMXRS  =      24 IFCAP =       0 NEXTRA =       0
 NCOPY  =       0

     BOX TYPE: TRUNCATED OCTAHEDRON

--------------------------------------------------------------------------------
   2.  CONTROL  DATA  FOR  THE  RUN
--------------------------------------------------------------------------------

default_name

General flags:
     imin    =       0, nmropt  =       0

Nature and format of input:
     ntx     =       5, irest   =       1, ntrx    =       1

Nature and format of output:
     ntxo    =       2, ntpr    =    1000, ntrx    =       1, ntwr    =    1000
     iwrap   =       0, ntwx    =   10000, ntwv    =       0, ntwe    =       0
     ioutfm  =       1, ntwprt  =       0, idecomp =       0, rbornstat=      0

Potential function:
     ntf     =       2, ntb     =       2, igb     =       0, nsnb    =      25
     ipol    =       0, gbsa    =       0, iesp    =       0
     dielc   =   1.00000, cut     =   8.00000, intdiel =   1.00000

Frozen or restrained atoms:
     ibelly  =       0, ntr     =       1
     restraint_wt =   5.00000

Molecular dynamics:
     nstlim  =   1000000, nscm    =         0, nrespa  =         1
     t       =   0.00000, dt      =   0.00100, vlimit  =  -1.00000

Langevin dynamics temperature regulation:
     ig      =  584436
     temp0   = 298.00000, tempi   =   0.00000, gamma_ln=   1.00000

Pressure regulation:
     ntp     =       1
     pres0   =   1.00000, comp    =  44.60000, taup    =   1.00000
     Monte-Carlo Barostat:
     mcbarint  =     100

SHAKE:
     ntc     =       2, jfastw  =       0
     tol     =   0.00001

Ewald parameters:
     verbose =       0, ew_type =       0, nbflag  =       1, use_pme =       1
     vdwmeth =       1, eedmeth =       1, netfrc  =       1
     Box X =   99.112   Box Y =   99.112   Box Z =   99.112
     Alpha =  109.471   Beta  =  109.471   Gamma =  109.471
     NFFT1 =  100       NFFT2 =  100       NFFT3 =  100
     Cutoff=    8.000   Tol   =0.100E-04
     Ewald Coefficient =  0.34864
     Interpolation order =    4

    LOADING THE CONSTRAINED ATOMS AS GROUPS

   5.  REFERENCE ATOM COORDINATES

  default_name
     Mask @CA,N,C,C1,C2,C3,C4,C5,OC6,C7,C8,C9,C10,C11,C12,C13,C14,C15,C16,C17,C18,C19,C20,O1,O1A,O2A,O3A,O1B,O2B,PA,PB; matches  2092 atoms

--------------------------------------------------------------------------------
   3.  ATOMIC COORDINATES AND VELOCITIES
--------------------------------------------------------------------------------

default_name
 begin time read from input coords =  1000.000 ps

 Number of triangulated 3-point waters found:    21069

     Sum of charges from parm topology file =  -0.00000029
     Forcing neutrality...

--------------------------------------------------------------------------------
   4.  RESULTS
 NSTEP =     1000   TIME(PS) =    1001.000  TEMP(K) =   297.34  PRESS =     0.0
 Etot   =   -192963.2770  EKtot   =     45776.6914  EPtot      =   -238739.9684
 BOND   =      2041.4117  ANGLE   =      5822.4652  DIHED      =      9464.6873
 1-4 NB =      2658.0995  1-4 EEL =     27921.3722  VDWAALS    =     24089.9830
 EELEC  =   -311219.0930  EHBOND  =         0.0000  RESTRAINT  =       481.1057
 EAMBER (non-restraint)  =   -239221.0741
 EKCMT  =         0.0000  VIRIAL  =         0.0000  VOLUME     =    749480.0028
                                                    Density    =         1.0277
 ------------------------------------------------------------------------------

      A V E R A G E S   O V E R    1000 S T E P S

 NSTEP =  1000000   TIME(PS) =    2000.000  TEMP(K) =   298.04  PRESS =     0.0
 Etot   =   -193043.7422  EKtot   =     45884.3095  EPtot      =   -238928.0516
 BOND   =      2018.4631  ANGLE   =      5836.8249  DIHED      =      9478.2804
 1-4 NB =      2688.0086  1-4 EEL =     27967.8169  VDWAALS    =     24265.6477
 EELEC  =   -311769.4085  EHBOND  =         0.0000  RESTRAINT  =       586.3154
 EAMBER (non-restraint)  =   -239514.3670
 EKCMT  =         0.0000  VIRIAL  =         0.0000  VOLUME     =    745713.8511
                                                    Density    =         1.0329
 ------------------------------------------------------------------------------

      R M S  F L U C T U A T I O N S

 NSTEP =  1000000   TIME(PS) =    2000.000  TEMP(K) =     1.05  PRESS =     0.0
 Etot   =       292.5108  EKtot   =       162.2101  EPtot      =       245.1370
 BOND   =        37.8596  ANGLE   =        56.8328  DIHED      =        29.8325
 1-4 NB =        21.1447  1-4 EEL =        50.7839  VDWAALS    =       233.4089
 EELEC  =       374.2547  EHBOND  =         0.0000  RESTRAINT  =        19.9645
 EAMBER (non-restraint)  =       225.1725
 EKCMT  =         0.0000  VIRIAL  =         0.0000  VOLUME     =      1296.3590
                                                    Density    =         0.0018
 ------------------------------------------------------------------------------
