-------------------------------------------------------
          Amber 20 PMEMD                              2020
          -------------------------------------------------------

  [-O]verwriting output

File Assignments:

 Here is the input file:

 &cntrl
  imin = 0, nstlim = 1000000, dt = 0.001,
  irest = 1, ntx = 5, ig = -1,
  temp0 = 298.0,
  ntc = 2, ntf = 2, tol = 0.00001,
  ntwx = 10000, ntwe = 0, ntwr = 1000, ntpr = 1000,
  cut = 8.0, iwrap = 0,
  ntt =3, gamma_ln=1.0, ntb = 2, ntp = 1,
  nscm = 0, barostat = 2,
  ntr=1, restraintmask="@CA,N,C,C1,C2,C3,C4,C5,C6,C7,C8,C9,C10,C11,C12,C13,C14,
  restraint_wt=.5,
  ioutfm=1, ntxo=2,
 /

Note: ig = -1. Setting random seed to   750459 based on wallclock time in
      microseconds.

--------------------------------------------------------------------------------
   1.  RESOURCE   USE:
--------------------------------------------------------------------------------

 getting box info from netcdf restart file
 NATOM  =   74599 NTYPES =      20 NBONH =   68849 MBONA  =    5685
 NTHETH =   12838 MTHETA =    7710 NPHIH =   25713 MPHIA  =   24808
 NHPARM =       0 NPARM  =       0 NNB   =  146512 NRES   =   21920
 NBONA  =    5685 NTHETA =    7710 NPHIA =   24808 NUMBND =      78
 NUMANG =     181 NPTRA  =     201 NATYP =      45 NPHB   =       0
 IFBOX  =       2 NMXRS  =      24 IFCAP =       0 NEXTRA =       0
 NCOPY  =       0

     BOX TYPE: TRUNCATED OCTAHEDRON

--------------------------------------------------------------------------------
   2.  CONTROL  DATA  FOR  THE  RUN
--------------------------------------------------------------------------------

default_name

General flags:
     imin    =       0, nmropt  =       0

Nature and format of input:
     ntx     =       5, irest   =       1, ntrx    =       1

Nature and format of output:
     ntxo    =       2, ntpr    =    1000, ntrx    =       1, ntwr    =    1000
     iwrap   =       0, ntwx    =   10000, ntwv    =       0, ntwe    =       0
     ioutfm  =       1, ntwprt  =       0, idecomp =       0, rbornstat=      0

Potential function:
     ntf     =       2, ntb     =       2, igb     =       0, nsnb    =      25
     ipol    =       0, gbsa    =       0, iesp    =       0
     dielc   =   1.00000, cut     =   8.00000, intdiel =   1.00000

Frozen or restrained atoms:
     ibelly  =       0, ntr     =       1
     restraint_wt =   0.50000

Molecular dynamics:
     nstlim  =   1000000, nscm    =         0, nrespa  =         1
     t       =   0.00000, dt      =   0.00100, vlimit  =  -1.00000

Langevin dynamics temperature regulation:
     ig      =  750459
     temp0   = 298.00000, tempi   =   0.00000, gamma_ln=   1.00000

Pressure regulation:
     ntp     =       1
     pres0   =   1.00000, comp    =  44.60000, taup    =   1.00000
     Monte-Carlo Barostat:
     mcbarint  =     100

SHAKE:
     ntc     =       2, jfastw  =       0
     tol     =   0.00001

Ewald parameters:
     verbose =       0, ew_type =       0, nbflag  =       1, use_pme =       1
     vdwmeth =       1, eedmeth =       1, netfrc  =       1
     Box X =   98.842   Box Y =   98.842   Box Z =   98.842
     Alpha =  109.471   Beta  =  109.471   Gamma =  109.471
     NFFT1 =  100       NFFT2 =  100       NFFT3 =  100
     Cutoff=    8.000   Tol   =0.100E-04
     Ewald Coefficient =  0.34864
     Interpolation order =    4

    LOADING THE CONSTRAINED ATOMS AS GROUPS

   5.  REFERENCE ATOM COORDINATES

  default_name
     Mask @CA,N,C,C1,C2,C3,C4,C5,C6,C7,C8,C9,C10,C11,C12,C13,C14,C15,C16,C17,C18,C19,C20,O1,O1A,O2A,O3A,O1B,O2B,PA,PB; matches  2092 atoms

--------------------------------------------------------------------------------
   3.  ATOMIC COORDINATES AND VELOCITIES
--------------------------------------------------------------------------------

default_name
 begin time read from input coords =  2000.000 ps

 Number of triangulated 3-point waters found:    21069

     Sum of charges from parm topology file =  -0.00000029
     Forcing neutrality...

--------------------------------------------------------------------------------
   4.  RESULTS
 NSTEP =     1000   TIME(PS) =    2001.000  TEMP(K) =   297.93  PRESS =     0.0
 Etot   =   -193673.1638  EKtot   =     45867.4023  EPtot      =   -239540.5661
 BOND   =      2094.5227  ANGLE   =      5919.8366  DIHED      =      9441.2363
 1-4 NB =      2621.5768  1-4 EEL =     27823.7522  VDWAALS    =     24231.4407
 EELEC  =   -311830.2395  EHBOND  =         0.0000  RESTRAINT  =       157.3080
 EAMBER (non-restraint)  =   -239697.8741
 EKCMT  =         0.0000  VIRIAL  =         0.0000  VOLUME     =    743349.6892
                                                    Density    =         1.0361
 ------------------------------------------------------------------------------

      A V E R A G E S   O V E R    1000 S T E P S

 NSTEP =  1000000   TIME(PS) =    3000.000  TEMP(K) =   298.00  PRESS =     0.0
 Etot   =   -194063.6118  EKtot   =     45878.2827  EPtot      =   -239941.8944
 BOND   =      2041.5409  ANGLE   =      5854.7174  DIHED      =      9425.5719
 1-4 NB =      2660.9481  1-4 EEL =     27886.7718  VDWAALS    =     24388.6908
 EELEC  =   -312408.2940  EHBOND  =         0.0000  RESTRAINT  =       208.1586
 EAMBER (non-restraint)  =   -240150.0531
 EKCMT  =         0.0000  VIRIAL  =         0.0000  VOLUME     =    741321.9456
                                                    Density    =         1.0390
 ------------------------------------------------------------------------------

      R M S  F L U C T U A T I O N S

 NSTEP =  1000000   TIME(PS) =    3000.000  TEMP(K) =     1.02  PRESS =     0.0
 Etot   =       272.6477  EKtot   =       157.0954  EPtot      =       232.4209
 BOND   =        36.5650  ANGLE   =        57.2433  DIHED      =        32.3936
 1-4 NB =        20.9505  1-4 EEL =        57.2796  VDWAALS    =       230.7116
 EELEC  =       369.7702  EHBOND  =         0.0000  RESTRAINT  =        10.8408
 EAMBER (non-restraint)  =       221.5801
 EKCMT  =         0.0000  VIRIAL  =         0.0000  VOLUME     =      1182.8026
                                                    Density    =         0.0017
 ------------------------------------------------------------------------------
