-------------------------------------------------------
          Amber 20 PMEMD                              2020
          -------------------------------------------------------

  [-O]verwriting output

File Assignments:

 Here is the input file:

 &cntrl
  imin = 0, nstlim = 1000000, dt = 0.001,
  irest = 1, ntx = 5, ig = -1,
  temp0 = 298.0,
  ntc = 2, ntf = 2, tol = 0.00001,
  ntwx = 10000, ntwe = 0, ntwr = 1000, ntpr = 1000,
  cut = 8.0, iwrap = 0,
  ntt =3,  gamma_ln=1.0, ntb = 2, ntp = 1,
  nscm = 0, barostat = 2,
  ntr=1, restraintmask=':1-688', restraint_wt=50.
  ioutfm=1, ntxo=2,
 /

Note: ig = -1. Setting random seed to   653696 based on wallclock time in
      microseconds.

--------------------------------------------------------------------------------
   1.  RESOURCE   USE:
--------------------------------------------------------------------------------

 getting box info from netcdf restart file
 NATOM  =   74855 NTYPES =      20 NBONH =   69096 MBONA  =    5692
 NTHETH =   12870 MTHETA =    7716 NPHIH =   25795 MPHIA  =   24812
 NHPARM =       0 NPARM  =       0 NNB   =  146932 NRES   =   22000
 NBONA  =    5692 NTHETA =    7716 NPHIA =   24812 NUMBND =      78
 NUMANG =     180 NPTRA  =     201 NATYP =      45 NPHB   =       0
 IFBOX  =       2 NMXRS  =      49 IFCAP =       0 NEXTRA =       0
 NCOPY  =       0

     BOX TYPE: TRUNCATED OCTAHEDRON

--------------------------------------------------------------------------------
   2.  CONTROL  DATA  FOR  THE  RUN
--------------------------------------------------------------------------------

default_name

General flags:
     imin    =       0, nmropt  =       0

Nature and format of input:
     ntx     =       5, irest   =       1, ntrx    =       1

Nature and format of output:
     ntxo    =       2, ntpr    =    1000, ntrx    =       1, ntwr    =    1000
     iwrap   =       0, ntwx    =   10000, ntwv    =       0, ntwe    =       0
     ioutfm  =       1, ntwprt  =       0, idecomp =       0, rbornstat=      0

Potential function:
     ntf     =       2, ntb     =       2, igb     =       0, nsnb    =      25
     ipol    =       0, gbsa    =       0, iesp    =       0
     dielc   =   1.00000, cut     =   8.00000, intdiel =   1.00000

Frozen or restrained atoms:
     ibelly  =       0, ntr     =       1
     restraint_wt =  50.00000

Molecular dynamics:
     nstlim  =   1000000, nscm    =         0, nrespa  =         1
     t       =   0.00000, dt      =   0.00100, vlimit  =  -1.00000

Langevin dynamics temperature regulation:
     ig      =  653696
     temp0   = 298.00000, tempi   =   0.00000, gamma_ln=   1.00000

Pressure regulation:
     ntp     =       1
     pres0   =   1.00000, comp    =  44.60000, taup    =   1.00000
     Monte-Carlo Barostat:
     mcbarint  =     100

SHAKE:
     ntc     =       2, jfastw  =       0
     tol     =   0.00001

Ewald parameters:
     verbose =       0, ew_type =       0, nbflag  =       1, use_pme =       1
     vdwmeth =       1, eedmeth =       1, netfrc  =       1
     Box X =  102.342   Box Y =  102.342   Box Z =  102.342
     Alpha =  109.471   Beta  =  109.471   Gamma =  109.471
     NFFT1 =  108       NFFT2 =  108       NFFT3 =  108
     Cutoff=    8.000   Tol   =0.100E-04
     Ewald Coefficient =  0.34864
     Interpolation order =    4

    LOADING THE CONSTRAINED ATOMS AS GROUPS

   5.  REFERENCE ATOM COORDINATES

  default_name
     Mask :1-688; matches 11249 atoms

--------------------------------------------------------------------------------
   3.  ATOMIC COORDINATES AND VELOCITIES
--------------------------------------------------------------------------------

default_name
 begin time read from input coords =  2000.000 ps

 Number of triangulated 3-point waters found:    21147

     Sum of charges from parm topology file =  -0.00000030
     Forcing neutrality...

--------------------------------------------------------------------------------
   4.  RESULTS
 NSTEP =     1000   TIME(PS) =    2001.000  TEMP(K) =   293.91  PRESS =     0.0
 Etot   =   -185810.3383  EKtot   =     45401.6016  EPtot      =   -231211.9399
 BOND   =      1600.4032  ANGLE   =      4613.2233  DIHED      =      8925.4011
 1-4 NB =      3073.1525  1-4 EEL =     28961.0687  VDWAALS    =     25456.4305
 EELEC  =   -308210.5047  EHBOND  =         0.0000  RESTRAINT  =      4368.8855
 EAMBER (non-restraint)  =   -235580.8253
 EKCMT  =         0.0000  VIRIAL  =         0.0000  VOLUME     =    824158.3179
                                                    Density    =         0.9377
 ------------------------------------------------------------------------------

      A V E R A G E S   O V E R    1000 S T E P S

 NSTEP =  1000000   TIME(PS) =    3000.000  TEMP(K) =   297.99  PRESS =     0.0
 Etot   =   -184043.7486  EKtot   =     46032.1668  EPtot      =   -230075.9154
 BOND   =      1715.3278  ANGLE   =      4874.1305  DIHED      =      8960.3119
 1-4 NB =      3093.3546  1-4 EEL =     28952.2325  VDWAALS    =     25040.3888
 EELEC  =   -307433.8861  EHBOND  =         0.0000  RESTRAINT  =      4722.2246
 EAMBER (non-restraint)  =   -234798.1400
 EKCMT  =         0.0000  VIRIAL  =         0.0000  VOLUME     =    813433.6722
                                                    Density    =         0.9500
 ------------------------------------------------------------------------------

      R M S  F L U C T U A T I O N S

 NSTEP =  1000000   TIME(PS) =    3000.000  TEMP(K) =     1.08  PRESS =     0.0
 Etot   =       297.5993  EKtot   =       166.1904  EPtot      =       248.6739
 BOND   =        30.8036  ANGLE   =        42.3395  DIHED      =        18.8733
 1-4 NB =        13.3889  1-4 EEL =        30.1806  VDWAALS    =       239.1809
 EELEC  =       393.5777  EHBOND  =         0.0000  RESTRAINT  =        49.2650
 EAMBER (non-restraint)  =       199.4089
 EKCMT  =         0.0000  VIRIAL  =         0.0000  VOLUME     =      1680.4465
                                                    Density    =         0.0020
 ------------------------------------------------------------------------------
