-------------------------------------------------------
          Amber 20 PMEMD                              2020
          -------------------------------------------------------

  [-O]verwriting output

File Assignments:

 Here is the input file:

 &cntrl
  imin = 0, nstlim = 1000000, dt = 0.001,
  irest = 0, ntx = 1, ig = -1,
  tempi = 298.0, temp0 = 298.0,
  ntc = 2, ntf = 2, tol = 0.00001,
  ntwx = 10000, ntwe = 0, ntwr = 1000, ntpr = 1000,
  cut = 8.0, iwrap = 0,
  ntt =3, gamma_ln=1.0, ntb = 2, ntp = 1,
  nscm = 0, barostat = 2,
  ntr=1, restraintmask="@CA,N,C,C1,C2,C3,C4,C5,C6,C7,C8,C9,C10,C11,C12,C13,C14,
  restraint_wt=50.
  ioutfm=1, ntxo=2,
 /

Note: ig = -1. Setting random seed to   280073 based on wallclock time in
      microseconds.

--------------------------------------------------------------------------------
   1.  RESOURCE   USE:
--------------------------------------------------------------------------------

 getting box info from netcdf restart file
 NATOM  =   74855 NTYPES =      20 NBONH =   69096 MBONA  =    5692
 NTHETH =   12870 MTHETA =    7716 NPHIH =   25795 MPHIA  =   24812
 NHPARM =       0 NPARM  =       0 NNB   =  146932 NRES   =   22000
 NBONA  =    5692 NTHETA =    7716 NPHIA =   24812 NUMBND =      78
 NUMANG =     180 NPTRA  =     201 NATYP =      45 NPHB   =       0
 IFBOX  =       2 NMXRS  =      49 IFCAP =       0 NEXTRA =       0
 NCOPY  =       0

     BOX TYPE: TRUNCATED OCTAHEDRON

--------------------------------------------------------------------------------
   2.  CONTROL  DATA  FOR  THE  RUN
--------------------------------------------------------------------------------

default_name

General flags:
     imin    =       0, nmropt  =       0

Nature and format of input:
     ntx     =       1, irest   =       0, ntrx    =       1

Nature and format of output:
     ntxo    =       2, ntpr    =    1000, ntrx    =       1, ntwr    =    1000
     iwrap   =       0, ntwx    =   10000, ntwv    =       0, ntwe    =       0
     ioutfm  =       1, ntwprt  =       0, idecomp =       0, rbornstat=      0

Potential function:
     ntf     =       2, ntb     =       2, igb     =       0, nsnb    =      25
     ipol    =       0, gbsa    =       0, iesp    =       0
     dielc   =   1.00000, cut     =   8.00000, intdiel =   1.00000

Frozen or restrained atoms:
     ibelly  =       0, ntr     =       1
     restraint_wt =  50.00000

Molecular dynamics:
     nstlim  =   1000000, nscm    =         0, nrespa  =         1
     t       =   0.00000, dt      =   0.00100, vlimit  =  -1.00000

Langevin dynamics temperature regulation:
     ig      =  280073
     temp0   = 298.00000, tempi   = 298.00000, gamma_ln=   1.00000

Pressure regulation:
     ntp     =       1
     pres0   =   1.00000, comp    =  44.60000, taup    =   1.00000
     Monte-Carlo Barostat:
     mcbarint  =     100

SHAKE:
     ntc     =       2, jfastw  =       0
     tol     =   0.00001

Ewald parameters:
     verbose =       0, ew_type =       0, nbflag  =       1, use_pme =       1
     vdwmeth =       1, eedmeth =       1, netfrc  =       1
     Box X =  101.895   Box Y =  101.895   Box Z =  101.895
     Alpha =  109.471   Beta  =  109.471   Gamma =  109.471
     NFFT1 =  108       NFFT2 =  108       NFFT3 =  108
     Cutoff=    8.000   Tol   =0.100E-04
     Ewald Coefficient =  0.34864
     Interpolation order =    4

    LOADING THE CONSTRAINED ATOMS AS GROUPS

   5.  REFERENCE ATOM COORDINATES

  default_name
     Mask @CA,N,C,C1,C2,C3,C4,C5,C6,C7,C8,C9,C10,C11,C12,C13,C14,C15,C16,C17,C18,C19,C20,O1,O1A,O2A,O3A,O1B,O2B,PA,PB; matches  2112 atoms

--------------------------------------------------------------------------------
   3.  ATOMIC COORDINATES AND VELOCITIES
--------------------------------------------------------------------------------

default_name
 begin time read from input coords =     0.000 ps

 Number of triangulated 3-point waters found:    21147

     Sum of charges from parm topology file =  -0.00000030
     Forcing neutrality...

--------------------------------------------------------------------------------
   4.  RESULTS
 NSTEP =        0   TIME(PS) =       0.000  TEMP(K) =   428.43  PRESS =     0.0
 Etot   =   -180980.1821  EKtot   =     66181.5841  EPtot      =   -247161.7662
 BOND   =       331.7655  ANGLE   =      2162.1772  DIHED      =      8542.1460
 1-4 NB =      2836.3810  1-4 EEL =     28833.6486  VDWAALS    =     17251.5109
 EELEC  =   -307119.3953  EHBOND  =         0.0000  RESTRAINT  =         0.0000
 EKCMT  =         0.0000  VIRIAL  =         0.0000  VOLUME     =    814406.4609
                                                    Density    =         0.9489
 ------------------------------------------------------------------------------

      A V E R A G E S   O V E R    1000 S T E P S

 NSTEP =  1000000   TIME(PS) =    1000.000  TEMP(K) =   297.93  PRESS =     0.0
 Etot   =   -191814.4629  EKtot   =     46022.7686  EPtot      =   -237837.2315
 BOND   =      1926.4936  ANGLE   =      5794.1339  DIHED      =      9577.7278
 1-4 NB =      2815.3941  1-4 EEL =     28602.8040  VDWAALS    =     24322.1221
 EELEC  =   -311864.4297  EHBOND  =         0.0000  RESTRAINT  =       988.5227
 EAMBER (non-restraint)  =   -238825.7542
 EKCMT  =         0.0000  VIRIAL  =         0.0000  VOLUME     =    756073.6215
                                                    Density    =         1.0221
 ------------------------------------------------------------------------------

      R M S  F L U C T U A T I O N S

 NSTEP =  1000000   TIME(PS) =    1000.000  TEMP(K) =     1.17  PRESS =     0.0
 Etot   =       352.0150  EKtot   =       181.1006  EPtot      =       305.0394
 BOND   =        36.1624  ANGLE   =        58.5676  DIHED      =        30.4836
 1-4 NB =        20.3193  1-4 EEL =        46.7267  VDWAALS    =       229.7401
 EELEC  =       419.0725  EHBOND  =         0.0000  RESTRAINT  =        23.5486
 EAMBER (non-restraint)  =       281.4908
 EKCMT  =         0.0000  VIRIAL  =         0.0000  VOLUME     =      5905.6957
                                                    Density    =         0.0076
 ------------------------------------------------------------------------------
