-------------------------------------------------------
          Amber 20 PMEMD                              2020
          -------------------------------------------------------

  [-O]verwriting output

File Assignments:

 Here is the input file:

 &cntrl
  imin = 0, nstlim = 1000000, dt = 0.001,
  irest = 1, ntx = 5, ig = -1,
  temp0 = 298.0,
  ntc = 2, ntf = 2, tol = 0.00001,
  ntwx = 10000, ntwe = 0, ntwr = 1000, ntpr = 1000,
  cut = 8.0, iwrap = 0,
  ntt =3, gamma_ln=1.0, ntb = 2, ntp = 1, barostat = 2,
  nscm = 0,
  ntr=1, restraintmask=':1-686', restraint_wt=200.
  ioutfm=1, ntxo=2,
 /

Note: ig = -1. Setting random seed to   536564 based on wallclock time in
      microseconds.

--------------------------------------------------------------------------------
   1.  RESOURCE   USE:
--------------------------------------------------------------------------------

 getting box info from netcdf restart file
 NATOM  =   74868 NTYPES =      20 NBONH =   69135 MBONA  =    5672
 NTHETH =   12824 MTHETA =    7688 NPHIH =   25725 MPHIA  =   24754
 NHPARM =       0 NPARM  =       0 NNB   =  146804 NRES   =   22017
 NBONA  =    5672 NTHETA =    7688 NPHIA =   24754 NUMBND =      80
 NUMANG =     180 NPTRA  =     211 NATYP =      47 NPHB   =       0
 IFBOX  =       2 NMXRS  =      62 IFCAP =       0 NEXTRA =       0
 NCOPY  =       0

     BOX TYPE: TRUNCATED OCTAHEDRON

--------------------------------------------------------------------------------
   2.  CONTROL  DATA  FOR  THE  RUN
--------------------------------------------------------------------------------

default_name

General flags:
     imin    =       0, nmropt  =       0

Nature and format of input:
     ntx     =       5, irest   =       1, ntrx    =       1

Nature and format of output:
     ntxo    =       2, ntpr    =    1000, ntrx    =       1, ntwr    =    1000
     iwrap   =       0, ntwx    =   10000, ntwv    =       0, ntwe    =       0
     ioutfm  =       1, ntwprt  =       0, idecomp =       0, rbornstat=      0

Potential function:
     ntf     =       2, ntb     =       2, igb     =       0, nsnb    =      25
     ipol    =       0, gbsa    =       0, iesp    =       0
     dielc   =   1.00000, cut     =   8.00000, intdiel =   1.00000

Frozen or restrained atoms:
     ibelly  =       0, ntr     =       1
     restraint_wt = 200.00000

Molecular dynamics:
     nstlim  =   1000000, nscm    =         0, nrespa  =         1
     t       =   0.00000, dt      =   0.00100, vlimit  =  -1.00000

Langevin dynamics temperature regulation:
     ig      =  536564
     temp0   = 298.00000, tempi   =   0.00000, gamma_ln=   1.00000

Pressure regulation:
     ntp     =       1
     pres0   =   1.00000, comp    =  44.60000, taup    =   1.00000
     Monte-Carlo Barostat:
     mcbarint  =     100

SHAKE:
     ntc     =       2, jfastw  =       0
     tol     =   0.00001

Ewald parameters:
     verbose =       0, ew_type =       0, nbflag  =       1, use_pme =       1
     vdwmeth =       1, eedmeth =       1, netfrc  =       1
     Box X =  103.159   Box Y =  103.159   Box Z =  103.159
     Alpha =  109.471   Beta  =  109.471   Gamma =  109.471
     NFFT1 =  108       NFFT2 =  108       NFFT3 =  108
     Cutoff=    8.000   Tol   =0.100E-04
     Ewald Coefficient =  0.34864
     Interpolation order =    4

    LOADING THE CONSTRAINED ATOMS AS GROUPS

   5.  REFERENCE ATOM COORDINATES

  default_name
     Mask :1-686; matches 11201 atoms

--------------------------------------------------------------------------------
   3.  ATOMIC COORDINATES AND VELOCITIES
--------------------------------------------------------------------------------

default_name
 begin time read from input coords =  1000.000 ps

 Number of triangulated 3-point waters found:    21168

     Sum of charges from parm topology file =  -0.00000028
     Forcing neutrality...

--------------------------------------------------------------------------------
   4.  RESULTS
 NSTEP =     1000   TIME(PS) =    1001.000  TEMP(K) =   291.67  PRESS =     0.0
 Etot   =   -185183.0406  EKtot   =     45055.2422  EPtot      =   -230238.2828
 BOND   =      1342.8839  ANGLE   =      3671.5416  DIHED      =      8969.0082
 1-4 NB =      3086.7243  1-4 EEL =     29309.2210  VDWAALS    =     25218.2007
 EELEC  =   -307367.6190  EHBOND  =         0.0000  RESTRAINT  =      5531.7565
 EAMBER (non-restraint)  =   -235770.0393
 EKCMT  =         0.0000  VIRIAL  =         0.0000  VOLUME     =    845063.6518
                                                    Density    =         0.9143
 ------------------------------------------------------------------------------

      A V E R A G E S   O V E R    1000 S T E P S

 NSTEP =  1000000   TIME(PS) =    2000.000  TEMP(K) =   298.31  PRESS =     0.0
 Etot   =   -183180.9322  EKtot   =     46080.5619  EPtot      =   -229261.4940
 BOND   =      1430.7088  ANGLE   =      3851.3251  DIHED      =      9004.4979
 1-4 NB =      3103.7560  1-4 EEL =     29311.6029  VDWAALS    =     24896.6069
 EELEC  =   -307104.4539  EHBOND  =         0.0000  RESTRAINT  =      6244.4624
 EAMBER (non-restraint)  =   -235505.9564
 EKCMT  =         0.0000  VIRIAL  =         0.0000  VOLUME     =    824791.1020
                                                    Density    =         0.9368
 ------------------------------------------------------------------------------

      R M S  F L U C T U A T I O N S

 NSTEP =  1000000   TIME(PS) =    2000.000  TEMP(K) =     1.18  PRESS =     0.0
 Etot   =       312.4888  EKtot   =       181.5224  EPtot      =       241.0135
 BOND   =        27.0298  ANGLE   =        29.9121  DIHED      =        12.9027
 1-4 NB =         9.3297  1-4 EEL =        20.1792  VDWAALS    =       232.8661
 EELEC  =       369.9472  EHBOND  =         0.0000  RESTRAINT  =        59.7463
 EAMBER (non-restraint)  =       181.2672
 EKCMT  =         0.0000  VIRIAL  =         0.0000  VOLUME     =      1885.8031
                                                    Density    =         0.0021
 ------------------------------------------------------------------------------
