-------------------------------------------------------
          Amber 20 PMEMD                              2020
          -------------------------------------------------------

  [-O]verwriting output

File Assignments:

 Here is the input file:

 &cntrl
  imin = 0, nstlim = 1000000, dt = 0.001,
  irest = 1, ntx = 5, ig = -1,
  temp0 = 298.0,
  ntc = 2, ntf = 2, tol = 0.00001,
  ntwx = 10000, ntwe = 0, ntwr = 1000, ntpr = 1000,
  cut = 8.0, iwrap = 0,
  ntt =3,  gamma_ln=1.0, ntb = 2, ntp = 1,
  nscm = 0, barostat = 2,
  ntr=1, restraintmask=':1-686', restraint_wt=50.
  ioutfm=1, ntxo=2,
 /

Note: ig = -1. Setting random seed to   788471 based on wallclock time in
      microseconds.

--------------------------------------------------------------------------------
   1.  RESOURCE   USE:
--------------------------------------------------------------------------------

 getting box info from netcdf restart file
 NATOM  =   74868 NTYPES =      20 NBONH =   69135 MBONA  =    5672
 NTHETH =   12824 MTHETA =    7688 NPHIH =   25725 MPHIA  =   24754
 NHPARM =       0 NPARM  =       0 NNB   =  146804 NRES   =   22017
 NBONA  =    5672 NTHETA =    7688 NPHIA =   24754 NUMBND =      80
 NUMANG =     180 NPTRA  =     211 NATYP =      47 NPHB   =       0
 IFBOX  =       2 NMXRS  =      62 IFCAP =       0 NEXTRA =       0
 NCOPY  =       0

     BOX TYPE: TRUNCATED OCTAHEDRON

--------------------------------------------------------------------------------
   2.  CONTROL  DATA  FOR  THE  RUN
--------------------------------------------------------------------------------

default_name

General flags:
     imin    =       0, nmropt  =       0

Nature and format of input:
     ntx     =       5, irest   =       1, ntrx    =       1

Nature and format of output:
     ntxo    =       2, ntpr    =    1000, ntrx    =       1, ntwr    =    1000
     iwrap   =       0, ntwx    =   10000, ntwv    =       0, ntwe    =       0
     ioutfm  =       1, ntwprt  =       0, idecomp =       0, rbornstat=      0

Potential function:
     ntf     =       2, ntb     =       2, igb     =       0, nsnb    =      25
     ipol    =       0, gbsa    =       0, iesp    =       0
     dielc   =   1.00000, cut     =   8.00000, intdiel =   1.00000

Frozen or restrained atoms:
     ibelly  =       0, ntr     =       1
     restraint_wt =  50.00000

Molecular dynamics:
     nstlim  =   1000000, nscm    =         0, nrespa  =         1
     t       =   0.00000, dt      =   0.00100, vlimit  =  -1.00000

Langevin dynamics temperature regulation:
     ig      =  788471
     temp0   = 298.00000, tempi   =   0.00000, gamma_ln=   1.00000

Pressure regulation:
     ntp     =       1
     pres0   =   1.00000, comp    =  44.60000, taup    =   1.00000
     Monte-Carlo Barostat:
     mcbarint  =     100

SHAKE:
     ntc     =       2, jfastw  =       0
     tol     =   0.00001

Ewald parameters:
     verbose =       0, ew_type =       0, nbflag  =       1, use_pme =       1
     vdwmeth =       1, eedmeth =       1, netfrc  =       1
     Box X =  102.362   Box Y =  102.362   Box Z =  102.362
     Alpha =  109.471   Beta  =  109.471   Gamma =  109.471
     NFFT1 =  108       NFFT2 =  108       NFFT3 =  108
     Cutoff=    8.000   Tol   =0.100E-04
     Ewald Coefficient =  0.34864
     Interpolation order =    4

    LOADING THE CONSTRAINED ATOMS AS GROUPS

   5.  REFERENCE ATOM COORDINATES

  default_name
     Mask :1-686; matches 11201 atoms

--------------------------------------------------------------------------------
   3.  ATOMIC COORDINATES AND VELOCITIES
--------------------------------------------------------------------------------

default_name
 begin time read from input coords =  2000.000 ps

 Number of triangulated 3-point waters found:    21168

     Sum of charges from parm topology file =  -0.00000028
     Forcing neutrality...

--------------------------------------------------------------------------------
   4.  RESULTS
 NSTEP =     1000   TIME(PS) =    2001.000  TEMP(K) =   292.95  PRESS =     0.0
 Etot   =   -186252.9786  EKtot   =     45253.1562  EPtot      =   -231506.1349
 BOND   =      1521.2680  ANGLE   =      4393.8280  DIHED      =      9120.5710
 1-4 NB =      3034.5914  1-4 EEL =     29136.2174  VDWAALS    =     24804.4920
 EELEC  =   -307627.3307  EHBOND  =         0.0000  RESTRAINT  =      4110.2279
 EAMBER (non-restraint)  =   -235616.3628
 EKCMT  =         0.0000  VIRIAL  =         0.0000  VOLUME     =    824618.2632
                                                    Density    =         0.9370
 ------------------------------------------------------------------------------

      A V E R A G E S   O V E R    1000 S T E P S

 NSTEP =  1000000   TIME(PS) =    3000.000  TEMP(K) =   298.07  PRESS =     0.0
 Etot   =   -184594.5475  EKtot   =     46044.0220  EPtot      =   -230638.5695
 BOND   =      1663.8948  ANGLE   =      4650.0323  DIHED      =      9160.2704
 1-4 NB =      3058.2681  1-4 EEL =     29128.7192  VDWAALS    =     24568.2091
 EELEC  =   -307389.5447  EHBOND  =         0.0000  RESTRAINT  =      4521.5813
 EAMBER (non-restraint)  =   -235160.1508
 EKCMT  =         0.0000  VIRIAL  =         0.0000  VOLUME     =    814365.7175
                                                    Density    =         0.9488
 ------------------------------------------------------------------------------

      R M S  F L U C T U A T I O N S

 NSTEP =  1000000   TIME(PS) =    3000.000  TEMP(K) =     1.10  PRESS =     0.0
 Etot   =       298.0204  EKtot   =       170.6898  EPtot      =       243.0598
 BOND   =        31.7085  ANGLE   =        40.9932  DIHED      =        18.0583
 1-4 NB =        13.7009  1-4 EEL =        31.3687  VDWAALS    =       227.4735
 EELEC  =       370.1085  EHBOND  =         0.0000  RESTRAINT  =        47.1523
 EAMBER (non-restraint)  =       195.9074
 EKCMT  =         0.0000  VIRIAL  =         0.0000  VOLUME     =      1620.6756
                                                    Density    =         0.0019
 ------------------------------------------------------------------------------
