-------------------------------------------------------
          Amber 20 PMEMD                              2020
          -------------------------------------------------------

  [-O]verwriting output

File Assignments:

 Here is the input file:

 &cntrl
  imin = 0, nstlim = 1000000, dt = 0.001,
  irest = 0, ntx = 1, ig = -1,
  tempi = 298.0, temp0 = 298.0,
  ntc = 2, ntf = 2, tol = 0.00001,
  ntwx = 10000, ntwe = 0, ntwr = 1000, ntpr = 1000,
  cut = 8.0, iwrap = 0,
  ntt =3, gamma_ln=1.0, ntb = 2, ntp = 1,
  nscm = 0, barostat = 2,
  ntr=1, restraintmask="@CA,N,C,C1,C2,C3,C4,C5,C6,C7,C8,C9,C10,C11,C12,C13,C14,
  restraint_wt=50.
  ioutfm=1, ntxo=2,
 /

Note: ig = -1. Setting random seed to   487031 based on wallclock time in
      microseconds.

--------------------------------------------------------------------------------
   1.  RESOURCE   USE:
--------------------------------------------------------------------------------

 getting box info from netcdf restart file
 NATOM  =   74868 NTYPES =      20 NBONH =   69135 MBONA  =    5672
 NTHETH =   12824 MTHETA =    7688 NPHIH =   25725 MPHIA  =   24754
 NHPARM =       0 NPARM  =       0 NNB   =  146804 NRES   =   22017
 NBONA  =    5672 NTHETA =    7688 NPHIA =   24754 NUMBND =      80
 NUMANG =     180 NPTRA  =     211 NATYP =      47 NPHB   =       0
 IFBOX  =       2 NMXRS  =      62 IFCAP =       0 NEXTRA =       0
 NCOPY  =       0

     BOX TYPE: TRUNCATED OCTAHEDRON

--------------------------------------------------------------------------------
   2.  CONTROL  DATA  FOR  THE  RUN
--------------------------------------------------------------------------------

default_name

General flags:
     imin    =       0, nmropt  =       0

Nature and format of input:
     ntx     =       1, irest   =       0, ntrx    =       1

Nature and format of output:
     ntxo    =       2, ntpr    =    1000, ntrx    =       1, ntwr    =    1000
     iwrap   =       0, ntwx    =   10000, ntwv    =       0, ntwe    =       0
     ioutfm  =       1, ntwprt  =       0, idecomp =       0, rbornstat=      0

Potential function:
     ntf     =       2, ntb     =       2, igb     =       0, nsnb    =      25
     ipol    =       0, gbsa    =       0, iesp    =       0
     dielc   =   1.00000, cut     =   8.00000, intdiel =   1.00000

Frozen or restrained atoms:
     ibelly  =       0, ntr     =       1
     restraint_wt =  50.00000

Molecular dynamics:
     nstlim  =   1000000, nscm    =         0, nrespa  =         1
     t       =   0.00000, dt      =   0.00100, vlimit  =  -1.00000

Langevin dynamics temperature regulation:
     ig      =  487031
     temp0   = 298.00000, tempi   = 298.00000, gamma_ln=   1.00000

Pressure regulation:
     ntp     =       1
     pres0   =   1.00000, comp    =  44.60000, taup    =   1.00000
     Monte-Carlo Barostat:
     mcbarint  =     100

SHAKE:
     ntc     =       2, jfastw  =       0
     tol     =   0.00001

Ewald parameters:
     verbose =       0, ew_type =       0, nbflag  =       1, use_pme =       1
     vdwmeth =       1, eedmeth =       1, netfrc  =       1
     Box X =  101.836   Box Y =  101.836   Box Z =  101.836
     Alpha =  109.471   Beta  =  109.471   Gamma =  109.471
     NFFT1 =  108       NFFT2 =  108       NFFT3 =  108
     Cutoff=    8.000   Tol   =0.100E-04
     Ewald Coefficient =  0.34864
     Interpolation order =    4

    LOADING THE CONSTRAINED ATOMS AS GROUPS

   5.  REFERENCE ATOM COORDINATES

  default_name
     Mask @CA,N,C,C1,C2,C3,C4,C5,C6,C7,C8,C9,C10,C11,C12,C13,C14,C15,C16,C17,C18,C19,C20,O1,O1A,O2A,O3A,O1B,O2B,PA,PB; matches  2096 atoms

--------------------------------------------------------------------------------
   3.  ATOMIC COORDINATES AND VELOCITIES
--------------------------------------------------------------------------------

default_name
 begin time read from input coords =     0.000 ps

 Number of triangulated 3-point waters found:    21168

     Sum of charges from parm topology file =  -0.00000028
     Forcing neutrality...

--------------------------------------------------------------------------------
   4.  RESULTS
 NSTEP =        0   TIME(PS) =       0.000  TEMP(K) =   427.87  PRESS =     0.0
 Etot   =   -181032.0358  EKtot   =     66094.1874  EPtot      =   -247126.2232
 BOND   =       303.3464  ANGLE   =      2018.9037  DIHED      =      8711.7791
 1-4 NB =      2807.1379  1-4 EEL =     29019.3894  VDWAALS    =     17031.2223
 EELEC  =   -307018.0020  EHBOND  =         0.0000  RESTRAINT  =         0.0000
 EKCMT  =         0.0000  VIRIAL  =         0.0000  VOLUME     =    812986.5120
                                                    Density    =         0.9504
 ------------------------------------------------------------------------------

      A V E R A G E S   O V E R    1000 S T E P S

 NSTEP =  1000000   TIME(PS) =    1000.000  TEMP(K) =   298.01  PRESS =     0.0
 Etot   =   -191260.9140  EKtot   =     46034.0075  EPtot      =   -237294.9214
 BOND   =      1918.8998  ANGLE   =      5719.8987  DIHED      =      9526.0152
 1-4 NB =      2804.4117  1-4 EEL =     28730.4601  VDWAALS    =     24297.6430
 EELEC  =   -311238.8740  EHBOND  =         0.0000  RESTRAINT  =       946.6240
 EAMBER (non-restraint)  =   -238241.5454
 EKCMT  =         0.0000  VIRIAL  =         0.0000  VOLUME     =    756441.5495
                                                    Density    =         1.0215
 ------------------------------------------------------------------------------

      R M S  F L U C T U A T I O N S

 NSTEP =  1000000   TIME(PS) =    1000.000  TEMP(K) =     1.17  PRESS =     0.0
 Etot   =       353.9369  EKtot   =       181.1616  EPtot      =       296.5761
 BOND   =        35.5863  ANGLE   =        60.3708  DIHED      =        30.3310
 1-4 NB =        19.2105  1-4 EEL =        47.6666  VDWAALS    =       231.6297
 EELEC  =       416.2129  EHBOND  =         0.0000  RESTRAINT  =        21.8084
 EAMBER (non-restraint)  =       274.7677
 EKCMT  =         0.0000  VIRIAL  =         0.0000  VOLUME     =      5640.6367
                                                    Density    =         0.0073
 ------------------------------------------------------------------------------
