-------------------------------------------------------
          Amber 20 PMEMD                              2020
          -------------------------------------------------------

  [-O]verwriting output

File Assignments:

 Here is the input file:

 &cntrl
  imin = 0, nstlim = 1000000, dt = 0.001,
  irest = 1, ntx = 5, ig = -1,
  temp0 = 298.0,
  ntc = 2, ntf = 2, tol = 0.00001,
  ntwx = 10000, ntwe = 0, ntwr = 1000, ntpr = 1000,
  cut = 8.0, iwrap = 0,
  ntt =3, gamma_ln=1.0, ntb = 2, ntp = 1,
  nscm = 1000, barostat = 2,
  ioutfm=1, ntxo=2,
 /

Note: ig = -1. Setting random seed to     4143 based on wallclock time in
      microseconds.

--------------------------------------------------------------------------------
   1.  RESOURCE   USE:
--------------------------------------------------------------------------------

 getting box info from netcdf restart file
 NATOM  =   74868 NTYPES =      20 NBONH =   69135 MBONA  =    5672
 NTHETH =   12824 MTHETA =    7688 NPHIH =   25725 MPHIA  =   24754
 NHPARM =       0 NPARM  =       0 NNB   =  146804 NRES   =   22017
 NBONA  =    5672 NTHETA =    7688 NPHIA =   24754 NUMBND =      80
 NUMANG =     180 NPTRA  =     211 NATYP =      47 NPHB   =       0
 IFBOX  =       2 NMXRS  =      62 IFCAP =       0 NEXTRA =       0
 NCOPY  =       0

     BOX TYPE: TRUNCATED OCTAHEDRON

--------------------------------------------------------------------------------
   2.  CONTROL  DATA  FOR  THE  RUN
--------------------------------------------------------------------------------

default_name

General flags:
     imin    =       0, nmropt  =       0

Nature and format of input:
     ntx     =       5, irest   =       1, ntrx    =       1

Nature and format of output:
     ntxo    =       2, ntpr    =    1000, ntrx    =       1, ntwr    =    1000
     iwrap   =       0, ntwx    =   10000, ntwv    =       0, ntwe    =       0
     ioutfm  =       1, ntwprt  =       0, idecomp =       0, rbornstat=      0

Potential function:
     ntf     =       2, ntb     =       2, igb     =       0, nsnb    =      25
     ipol    =       0, gbsa    =       0, iesp    =       0
     dielc   =   1.00000, cut     =   8.00000, intdiel =   1.00000

Frozen or restrained atoms:
     ibelly  =       0, ntr     =       0

Molecular dynamics:
     nstlim  =   1000000, nscm    =      1000, nrespa  =         1
     t       =   0.00000, dt      =   0.00100, vlimit  =  -1.00000

Langevin dynamics temperature regulation:
     ig      =    4143
     temp0   = 298.00000, tempi   =   0.00000, gamma_ln=   1.00000

Pressure regulation:
     ntp     =       1
     pres0   =   1.00000, comp    =  44.60000, taup    =   1.00000
     Monte-Carlo Barostat:
     mcbarint  =     100

SHAKE:
     ntc     =       2, jfastw  =       0
     tol     =   0.00001

Ewald parameters:
     verbose =       0, ew_type =       0, nbflag  =       1, use_pme =       1
     vdwmeth =       1, eedmeth =       1, netfrc  =       1
     Box X =   98.881   Box Y =   98.881   Box Z =   98.881
     Alpha =  109.471   Beta  =  109.471   Gamma =  109.471
     NFFT1 =  100       NFFT2 =  100       NFFT3 =  100
     Cutoff=    8.000   Tol   =0.100E-04
     Ewald Coefficient =  0.34864
     Interpolation order =    4

--------------------------------------------------------------------------------
   3.  ATOMIC COORDINATES AND VELOCITIES
--------------------------------------------------------------------------------

default_name
 begin time read from input coords =  3000.000 ps

 Number of triangulated 3-point waters found:    21168

     Sum of charges from parm topology file =  -0.00000028
     Forcing neutrality...

--------------------------------------------------------------------------------
   4.  RESULTS
 NSTEP =     1000   TIME(PS) =    3001.000  TEMP(K) =   299.42  PRESS =     0.0
 Etot   =   -193535.4741  EKtot   =     46253.1406  EPtot      =   -239788.6147
 BOND   =      2050.0796  ANGLE   =      5849.5990  DIHED      =      9425.4665
 1-4 NB =      2636.1062  1-4 EEL =     28483.9352  VDWAALS    =     24593.2602
 EELEC  =   -312827.0614  EHBOND  =         0.0000  RESTRAINT  =         0.0000
 EKCMT  =         0.0000  VIRIAL  =         0.0000  VOLUME     =    744254.9458
                                                    Density    =         1.0381
 ------------------------------------------------------------------------------

      A V E R A G E S   O V E R    1000 S T E P S

 NSTEP =  1000000   TIME(PS) =    4000.000  TEMP(K) =   297.99  PRESS =     0.0
 Etot   =   -194123.8073  EKtot   =     46031.3682  EPtot      =   -240155.1755
 BOND   =      2045.6549  ANGLE   =      5809.2817  DIHED      =      9406.1364
 1-4 NB =      2629.7296  1-4 EEL =     28391.3091  VDWAALS    =     24678.5175
 EELEC  =   -313115.8048  EHBOND  =         0.0000  RESTRAINT  =         0.0000
 EKCMT  =         0.0000  VIRIAL  =         0.0000  VOLUME     =    741483.1233
                                                    Density    =         1.0420
 ------------------------------------------------------------------------------

      R M S  F L U C T U A T I O N S

 NSTEP =  1000000   TIME(PS) =    4000.000  TEMP(K) =     1.08  PRESS =     0.0
 Etot   =       296.1674  EKtot   =       166.0907  EPtot      =       243.8382
 BOND   =        36.5975  ANGLE   =        56.5183  DIHED      =        35.0254
 1-4 NB =        21.5049  1-4 EEL =        57.0957  VDWAALS    =       236.9772
 EELEC  =       379.4295  EHBOND  =         0.0000  RESTRAINT  =         0.0000
 EKCMT  =         0.0000  VIRIAL  =         0.0000  VOLUME     =      1217.1459
                                                    Density    =         0.0017
 ------------------------------------------------------------------------------
