-------------------------------------------------------
          Amber 20 PMEMD                              2020
          -------------------------------------------------------

  [-O]verwriting output

File Assignments:

 Here is the input file:

 &cntrl
  imin = 0, nstlim = 1000000, dt = 0.001,
  irest = 1, ntx = 5, ig = -1,
  temp0 = 298.0,
  ntc = 2, ntf = 2, tol = 0.00001,
  ntwx = 10000, ntwe = 0, ntwr = 1000, ntpr = 1000,
  cut = 8.0, iwrap = 0,
  ntt =3, gamma_ln=1.0, ntb = 2, ntp = 1, barostat = 2,
  nscm = 0,
  ntr=1, restraintmask=':1-688', restraint_wt=200.
  ioutfm=1, ntxo=2,
 /

Note: ig = -1. Setting random seed to   894248 based on wallclock time in
      microseconds.

--------------------------------------------------------------------------------
   1.  RESOURCE   USE:
--------------------------------------------------------------------------------

 getting box info from netcdf restart file
 NATOM  =   74823 NTYPES =      20 NBONH =   69072 MBONA  =    5686
 NTHETH =   12848 MTHETA =    7712 NPHIH =   25729 MPHIA  =   24810
 NHPARM =       0 NPARM  =       0 NNB   =  146836 NRES   =   21996
 NBONA  =    5686 NTHETA =    7712 NPHIA =   24810 NUMBND =      78
 NUMANG =     180 NPTRA  =     201 NATYP =      45 NPHB   =       0
 IFBOX  =       2 NMXRS  =      36 IFCAP =       0 NEXTRA =       0
 NCOPY  =       0

     BOX TYPE: TRUNCATED OCTAHEDRON

--------------------------------------------------------------------------------
   2.  CONTROL  DATA  FOR  THE  RUN
--------------------------------------------------------------------------------

default_name

General flags:
     imin    =       0, nmropt  =       0

Nature and format of input:
     ntx     =       5, irest   =       1, ntrx    =       1

Nature and format of output:
     ntxo    =       2, ntpr    =    1000, ntrx    =       1, ntwr    =    1000
     iwrap   =       0, ntwx    =   10000, ntwv    =       0, ntwe    =       0
     ioutfm  =       1, ntwprt  =       0, idecomp =       0, rbornstat=      0

Potential function:
     ntf     =       2, ntb     =       2, igb     =       0, nsnb    =      25
     ipol    =       0, gbsa    =       0, iesp    =       0
     dielc   =   1.00000, cut     =   8.00000, intdiel =   1.00000

Frozen or restrained atoms:
     ibelly  =       0, ntr     =       1
     restraint_wt = 200.00000

Molecular dynamics:
     nstlim  =   1000000, nscm    =         0, nrespa  =         1
     t       =   0.00000, dt      =   0.00100, vlimit  =  -1.00000

Langevin dynamics temperature regulation:
     ig      =  894248
     temp0   = 298.00000, tempi   =   0.00000, gamma_ln=   1.00000

Pressure regulation:
     ntp     =       1
     pres0   =   1.00000, comp    =  44.60000, taup    =   1.00000
     Monte-Carlo Barostat:
     mcbarint  =     100

SHAKE:
     ntc     =       2, jfastw  =       0
     tol     =   0.00001

Ewald parameters:
     verbose =       0, ew_type =       0, nbflag  =       1, use_pme =       1
     vdwmeth =       1, eedmeth =       1, netfrc  =       1
     Box X =  103.144   Box Y =  103.144   Box Z =  103.144
     Alpha =  109.471   Beta  =  109.471   Gamma =  109.471
     NFFT1 =  108       NFFT2 =  108       NFFT3 =  108
     Cutoff=    8.000   Tol   =0.100E-04
     Ewald Coefficient =  0.34864
     Interpolation order =    4

    LOADING THE CONSTRAINED ATOMS AS GROUPS

   5.  REFERENCE ATOM COORDINATES

  default_name
     Mask :1-688; matches 11229 atoms

--------------------------------------------------------------------------------
   3.  ATOMIC COORDINATES AND VELOCITIES
--------------------------------------------------------------------------------

default_name
 begin time read from input coords =  1000.000 ps

 Number of triangulated 3-point waters found:    21143

     Sum of charges from parm topology file =  -0.00000029
     Forcing neutrality...

--------------------------------------------------------------------------------
   4.  RESULTS
 NSTEP =     1000   TIME(PS) =    1001.000  TEMP(K) =   293.11  PRESS =     0.0
 Etot   =   -183961.7307  EKtot   =     45255.9883  EPtot      =   -229217.7190
 BOND   =      1371.1400  ANGLE   =      3903.7407  DIHED      =      8684.1184
 1-4 NB =      3086.0619  1-4 EEL =     29153.0968  VDWAALS    =     25039.1944
 EELEC  =   -306069.1693  EHBOND  =         0.0000  RESTRAINT  =      5614.0980
 EAMBER (non-restraint)  =   -234831.8170
 EKCMT  =         0.0000  VIRIAL  =         0.0000  VOLUME     =    844721.6164
                                                    Density    =         0.9145
 ------------------------------------------------------------------------------

      A V E R A G E S   O V E R    1000 S T E P S

 NSTEP =  1000000   TIME(PS) =    2000.000  TEMP(K) =   298.31  PRESS =     0.0
 Etot   =   -182779.7765  EKtot   =     46059.8981  EPtot      =   -228839.6746
 BOND   =      1461.9457  ANGLE   =      4084.4964  DIHED      =      8698.3506
 1-4 NB =      3112.5728  1-4 EEL =     29158.4497  VDWAALS    =     25361.9849
 EELEC  =   -307074.9845  EHBOND  =         0.0000  RESTRAINT  =      6357.5099
 EAMBER (non-restraint)  =   -235197.1844
 EKCMT  =         0.0000  VIRIAL  =         0.0000  VOLUME     =    824070.1729
                                                    Density    =         0.9374
 ------------------------------------------------------------------------------

      R M S  F L U C T U A T I O N S

 NSTEP =  1000000   TIME(PS) =    2000.000  TEMP(K) =     1.12  PRESS =     0.0
 Etot   =       319.6913  EKtot   =       172.1586  EPtot      =       263.2976
 BOND   =        26.7625  ANGLE   =        30.7578  DIHED      =        12.6285
 1-4 NB =         9.5172  1-4 EEL =        20.2993  VDWAALS    =       231.9707
 EELEC  =       403.2151  EHBOND  =         0.0000  RESTRAINT  =        60.7573
 EAMBER (non-restraint)  =       202.5403
 EKCMT  =         0.0000  VIRIAL  =         0.0000  VOLUME     =      1598.3035
                                                    Density    =         0.0018
 ------------------------------------------------------------------------------
