-------------------------------------------------------
          Amber 20 PMEMD                              2020
          -------------------------------------------------------

  [-O]verwriting output

File Assignments:

 Here is the input file:

 &cntrl
  imin = 0, nstlim = 1000000, dt = 0.001,
  irest = 1, ntx = 5, ig = -1,
  temp0 = 298.0,
  ntc = 2, ntf = 2, tol = 0.00001,
  ntwx = 10000, ntwe = 0, ntwr = 1000, ntpr = 1000,
  cut = 8.0, iwrap = 0,
  ntt =3,  gamma_ln=1.0, ntb = 2, ntp = 1,
  nscm = 0, barostat = 2,
  ntr=1, restraintmask=':1-688', restraint_wt=50.
  ioutfm=1, ntxo=2,
 /

Note: ig = -1. Setting random seed to   271879 based on wallclock time in
      microseconds.

--------------------------------------------------------------------------------
   1.  RESOURCE   USE:
--------------------------------------------------------------------------------

 getting box info from netcdf restart file
 NATOM  =   74823 NTYPES =      20 NBONH =   69072 MBONA  =    5686
 NTHETH =   12848 MTHETA =    7712 NPHIH =   25729 MPHIA  =   24810
 NHPARM =       0 NPARM  =       0 NNB   =  146836 NRES   =   21996
 NBONA  =    5686 NTHETA =    7712 NPHIA =   24810 NUMBND =      78
 NUMANG =     180 NPTRA  =     201 NATYP =      45 NPHB   =       0
 IFBOX  =       2 NMXRS  =      36 IFCAP =       0 NEXTRA =       0
 NCOPY  =       0

     BOX TYPE: TRUNCATED OCTAHEDRON

--------------------------------------------------------------------------------
   2.  CONTROL  DATA  FOR  THE  RUN
--------------------------------------------------------------------------------

default_name

General flags:
     imin    =       0, nmropt  =       0

Nature and format of input:
     ntx     =       5, irest   =       1, ntrx    =       1

Nature and format of output:
     ntxo    =       2, ntpr    =    1000, ntrx    =       1, ntwr    =    1000
     iwrap   =       0, ntwx    =   10000, ntwv    =       0, ntwe    =       0
     ioutfm  =       1, ntwprt  =       0, idecomp =       0, rbornstat=      0

Potential function:
     ntf     =       2, ntb     =       2, igb     =       0, nsnb    =      25
     ipol    =       0, gbsa    =       0, iesp    =       0
     dielc   =   1.00000, cut     =   8.00000, intdiel =   1.00000

Frozen or restrained atoms:
     ibelly  =       0, ntr     =       1
     restraint_wt =  50.00000

Molecular dynamics:
     nstlim  =   1000000, nscm    =         0, nrespa  =         1
     t       =   0.00000, dt      =   0.00100, vlimit  =  -1.00000

Langevin dynamics temperature regulation:
     ig      =  271879
     temp0   = 298.00000, tempi   =   0.00000, gamma_ln=   1.00000

Pressure regulation:
     ntp     =       1
     pres0   =   1.00000, comp    =  44.60000, taup    =   1.00000
     Monte-Carlo Barostat:
     mcbarint  =     100

SHAKE:
     ntc     =       2, jfastw  =       0
     tol     =   0.00001

Ewald parameters:
     verbose =       0, ew_type =       0, nbflag  =       1, use_pme =       1
     vdwmeth =       1, eedmeth =       1, netfrc  =       1
     Box X =  102.266   Box Y =  102.266   Box Z =  102.266
     Alpha =  109.471   Beta  =  109.471   Gamma =  109.471
     NFFT1 =  108       NFFT2 =  108       NFFT3 =  108
     Cutoff=    8.000   Tol   =0.100E-04
     Ewald Coefficient =  0.34864
     Interpolation order =    4

    LOADING THE CONSTRAINED ATOMS AS GROUPS

   5.  REFERENCE ATOM COORDINATES

  default_name
     Mask :1-688; matches 11229 atoms

--------------------------------------------------------------------------------
   3.  ATOMIC COORDINATES AND VELOCITIES
--------------------------------------------------------------------------------

default_name
 begin time read from input coords =  2000.000 ps

 Number of triangulated 3-point waters found:    21143

     Sum of charges from parm topology file =  -0.00000029
     Forcing neutrality...

--------------------------------------------------------------------------------
   4.  RESULTS
 NSTEP =     1000   TIME(PS) =    2001.000  TEMP(K) =   292.81  PRESS =     0.0
 Etot   =   -186085.8958  EKtot   =     45210.8672  EPtot      =   -231296.7630
 BOND   =      1566.1775  ANGLE   =      4564.6100  DIHED      =      8860.0787
 1-4 NB =      3023.9463  1-4 EEL =     28972.8495  VDWAALS    =     25013.0389
 EELEC  =   -307512.0497  EHBOND  =         0.0000  RESTRAINT  =      4214.5859
 EAMBER (non-restraint)  =   -235511.3489
 EKCMT  =         0.0000  VIRIAL  =         0.0000  VOLUME     =    822392.3767
                                                    Density    =         0.9393
 ------------------------------------------------------------------------------

      A V E R A G E S   O V E R    1000 S T E P S

 NSTEP =  1000000   TIME(PS) =    3000.000  TEMP(K) =   298.12  PRESS =     0.0
 Etot   =   -184596.3073  EKtot   =     46029.9357  EPtot      =   -230626.2430
 BOND   =      1681.2925  ANGLE   =      4790.2400  DIHED      =      8904.9370
 1-4 NB =      3051.3910  1-4 EEL =     28965.8319  VDWAALS    =     24880.3396
 EELEC  =   -307544.4885  EHBOND  =         0.0000  RESTRAINT  =      4644.2136
 EAMBER (non-restraint)  =   -235270.4566
 EKCMT  =         0.0000  VIRIAL  =         0.0000  VOLUME     =    812637.2275
                                                    Density    =         0.9506
 ------------------------------------------------------------------------------

      R M S  F L U C T U A T I O N S

 NSTEP =  1000000   TIME(PS) =    3000.000  TEMP(K) =     1.09  PRESS =     0.0
 Etot   =       312.7353  EKtot   =       168.9034  EPtot      =       253.7767
 BOND   =        31.3571  ANGLE   =        41.9201  DIHED      =        18.1778
 1-4 NB =        13.3604  1-4 EEL =        30.0593  VDWAALS    =       231.9339
 EELEC  =       380.1543  EHBOND  =         0.0000  RESTRAINT  =        47.5001
 EAMBER (non-restraint)  =       206.2767
 EKCMT  =         0.0000  VIRIAL  =         0.0000  VOLUME     =      1573.8472
                                                    Density    =         0.0018
 ------------------------------------------------------------------------------
