-------------------------------------------------------
          Amber 20 PMEMD                              2020
          -------------------------------------------------------

  [-O]verwriting output

File Assignments:

 Here is the input file:

 &cntrl
  imin = 0, nstlim = 1000000, dt = 0.001,
  irest = 1, ntx = 5, ig = -1,
  temp0 = 298.0,
  ntc = 2, ntf = 2, tol = 0.00001,
  ntwx = 10000, ntwe = 0, ntwr = 1000, ntpr = 1000,
  cut = 8.0, iwrap = 0,
  ntt =3, gamma_ln=1.0, ntb = 2, ntp = 1,
  nscm = 0, barostat = 2,
  ntr=1, restraintmask="@CA,N,C,C1,C2,C3,C4,C5,C6,C7,C8,C9,C10,C11,C12,C13,C14,
  restraint_wt=.5,
  ioutfm=1, ntxo=2,
 /

Note: ig = -1. Setting random seed to   413385 based on wallclock time in
      microseconds.

--------------------------------------------------------------------------------
   1.  RESOURCE   USE:
--------------------------------------------------------------------------------

 getting box info from netcdf restart file
 NATOM  =   74823 NTYPES =      20 NBONH =   69072 MBONA  =    5686
 NTHETH =   12848 MTHETA =    7712 NPHIH =   25729 MPHIA  =   24810
 NHPARM =       0 NPARM  =       0 NNB   =  146836 NRES   =   21996
 NBONA  =    5686 NTHETA =    7712 NPHIA =   24810 NUMBND =      78
 NUMANG =     180 NPTRA  =     201 NATYP =      45 NPHB   =       0
 IFBOX  =       2 NMXRS  =      36 IFCAP =       0 NEXTRA =       0
 NCOPY  =       0

     BOX TYPE: TRUNCATED OCTAHEDRON

--------------------------------------------------------------------------------
   2.  CONTROL  DATA  FOR  THE  RUN
--------------------------------------------------------------------------------

default_name

General flags:
     imin    =       0, nmropt  =       0

Nature and format of input:
     ntx     =       5, irest   =       1, ntrx    =       1

Nature and format of output:
     ntxo    =       2, ntpr    =    1000, ntrx    =       1, ntwr    =    1000
     iwrap   =       0, ntwx    =   10000, ntwv    =       0, ntwe    =       0
     ioutfm  =       1, ntwprt  =       0, idecomp =       0, rbornstat=      0

Potential function:
     ntf     =       2, ntb     =       2, igb     =       0, nsnb    =      25
     ipol    =       0, gbsa    =       0, iesp    =       0
     dielc   =   1.00000, cut     =   8.00000, intdiel =   1.00000

Frozen or restrained atoms:
     ibelly  =       0, ntr     =       1
     restraint_wt =   0.50000

Molecular dynamics:
     nstlim  =   1000000, nscm    =         0, nrespa  =         1
     t       =   0.00000, dt      =   0.00100, vlimit  =  -1.00000

Langevin dynamics temperature regulation:
     ig      =  413385
     temp0   = 298.00000, tempi   =   0.00000, gamma_ln=   1.00000

Pressure regulation:
     ntp     =       1
     pres0   =   1.00000, comp    =  44.60000, taup    =   1.00000
     Monte-Carlo Barostat:
     mcbarint  =     100

SHAKE:
     ntc     =       2, jfastw  =       0
     tol     =   0.00001

Ewald parameters:
     verbose =       0, ew_type =       0, nbflag  =       1, use_pme =       1
     vdwmeth =       1, eedmeth =       1, netfrc  =       1
     Box X =   99.074   Box Y =   99.074   Box Z =   99.074
     Alpha =  109.471   Beta  =  109.471   Gamma =  109.471
     NFFT1 =  100       NFFT2 =  100       NFFT3 =  100
     Cutoff=    8.000   Tol   =0.100E-04
     Ewald Coefficient =  0.34864
     Interpolation order =    4

    LOADING THE CONSTRAINED ATOMS AS GROUPS

   5.  REFERENCE ATOM COORDINATES

  default_name
     Mask @CA,N,C,C1,C2,C3,C4,C5,C6,C7,C8,C9,C10,C11,C12,C13,C14,C15,C16,C17,C18,C19,C20,O1,O1A,O2A,O3A,O1B,O2B,PA,PB; matches  2102 atoms

--------------------------------------------------------------------------------
   3.  ATOMIC COORDINATES AND VELOCITIES
--------------------------------------------------------------------------------

default_name
 begin time read from input coords =  2000.000 ps

 Number of triangulated 3-point waters found:    21143

     Sum of charges from parm topology file =  -0.00000029
     Forcing neutrality...

--------------------------------------------------------------------------------
   4.  RESULTS
 NSTEP =     1000   TIME(PS) =    2001.000  TEMP(K) =   299.34  PRESS =     0.0
 Etot   =   -193758.0059  EKtot   =     46218.3281  EPtot      =   -239976.3340
 BOND   =      1984.8354  ANGLE   =      5833.7587  DIHED      =      9511.7457
 1-4 NB =      2687.8469  1-4 EEL =     28368.4260  VDWAALS    =     24686.1619
 EELEC  =   -313232.4491  EHBOND  =         0.0000  RESTRAINT  =       183.3406
 EAMBER (non-restraint)  =   -240159.6746
 EKCMT  =         0.0000  VIRIAL  =         0.0000  VOLUME     =    748628.2032
                                                    Density    =         1.0318
 ------------------------------------------------------------------------------

      A V E R A G E S   O V E R    1000 S T E P S

 NSTEP =  1000000   TIME(PS) =    3000.000  TEMP(K) =   298.01  PRESS =     0.0
 Etot   =   -194429.8384  EKtot   =     46012.6013  EPtot      =   -240442.4397
 BOND   =      2036.4503  ANGLE   =      5839.9087  DIHED      =      9440.7726
 1-4 NB =      2660.1143  1-4 EEL =     28375.6939  VDWAALS    =     24507.8548
 EELEC  =   -313521.2506  EHBOND  =         0.0000  RESTRAINT  =       218.0163
 EAMBER (non-restraint)  =   -240660.4560
 EKCMT  =         0.0000  VIRIAL  =         0.0000  VOLUME     =    743599.9386
                                                    Density    =         1.0388
 ------------------------------------------------------------------------------

      R M S  F L U C T U A T I O N S

 NSTEP =  1000000   TIME(PS) =    3000.000  TEMP(K) =     1.09  PRESS =     0.0
 Etot   =       285.5841  EKtot   =       168.5361  EPtot      =       229.9098
 BOND   =        37.8993  ANGLE   =        54.4095  DIHED      =        31.4466
 1-4 NB =        21.2799  1-4 EEL =        54.4669  VDWAALS    =       225.9005
 EELEC  =       358.6987  EHBOND  =         0.0000  RESTRAINT  =        11.0645
 EAMBER (non-restraint)  =       218.8453
 EKCMT  =         0.0000  VIRIAL  =         0.0000  VOLUME     =      1261.0585
                                                    Density    =         0.0018
 ------------------------------------------------------------------------------
