-------------------------------------------------------
          Amber 20 PMEMD                              2020
          -------------------------------------------------------

  [-O]verwriting output

File Assignments:

 Here is the input file:

 &cntrl
  imin = 0, nstlim = 1000000, dt = 0.001,
  irest = 1, ntx = 5, ig = -1,
  temp0 = 298.0,
  ntc = 2, ntf = 2, tol = 0.00001,
  ntwx = 10000, ntwe = 0, ntwr = 1000, ntpr = 1000,
  cut = 8.0, iwrap = 0,
  ntt =3,  gamma_ln=1.0, ntb = 2, ntp = 1,
  nscm = 0, barostat = 2,
  ntr=1, restraintmask=':1-688', restraint_wt=50.
  ioutfm=1, ntxo=2,
 /

Note: ig = -1. Setting random seed to   436411 based on wallclock time in
      microseconds.

--------------------------------------------------------------------------------
   1.  RESOURCE   USE:
--------------------------------------------------------------------------------

 getting box info from netcdf restart file
 NATOM  =   74642 NTYPES =      20 NBONH =   68873 MBONA  =    5704
 NTHETH =   12912 MTHETA =    7732 NPHIH =   25877 MPHIA  =   24840
 NHPARM =       0 NPARM  =       0 NNB   =  146780 NRES   =   21917
 NBONA  =    5704 NTHETA =    7732 NPHIA =   24840 NUMBND =      78
 NUMANG =     180 NPTRA  =     201 NATYP =      45 NPHB   =       0
 IFBOX  =       2 NMXRS  =      49 IFCAP =       0 NEXTRA =       0
 NCOPY  =       0

     BOX TYPE: TRUNCATED OCTAHEDRON

--------------------------------------------------------------------------------
   2.  CONTROL  DATA  FOR  THE  RUN
--------------------------------------------------------------------------------

default_name

General flags:
     imin    =       0, nmropt  =       0

Nature and format of input:
     ntx     =       5, irest   =       1, ntrx    =       1

Nature and format of output:
     ntxo    =       2, ntpr    =    1000, ntrx    =       1, ntwr    =    1000
     iwrap   =       0, ntwx    =   10000, ntwv    =       0, ntwe    =       0
     ioutfm  =       1, ntwprt  =       0, idecomp =       0, rbornstat=      0

Potential function:
     ntf     =       2, ntb     =       2, igb     =       0, nsnb    =      25
     ipol    =       0, gbsa    =       0, iesp    =       0
     dielc   =   1.00000, cut     =   8.00000, intdiel =   1.00000

Frozen or restrained atoms:
     ibelly  =       0, ntr     =       1
     restraint_wt =  50.00000

Molecular dynamics:
     nstlim  =   1000000, nscm    =         0, nrespa  =         1
     t       =   0.00000, dt      =   0.00100, vlimit  =  -1.00000

Langevin dynamics temperature regulation:
     ig      =  436411
     temp0   = 298.00000, tempi   =   0.00000, gamma_ln=   1.00000

Pressure regulation:
     ntp     =       1
     pres0   =   1.00000, comp    =  44.60000, taup    =   1.00000
     Monte-Carlo Barostat:
     mcbarint  =     100

SHAKE:
     ntc     =       2, jfastw  =       0
     tol     =   0.00001

Ewald parameters:
     verbose =       0, ew_type =       0, nbflag  =       1, use_pme =       1
     vdwmeth =       1, eedmeth =       1, netfrc  =       1
     Box X =  102.298   Box Y =  102.298   Box Z =  102.298
     Alpha =  109.471   Beta  =  109.471   Gamma =  109.471
     NFFT1 =  108       NFFT2 =  108       NFFT3 =  108
     Cutoff=    8.000   Tol   =0.100E-04
     Ewald Coefficient =  0.34864
     Interpolation order =    4

    LOADING THE CONSTRAINED ATOMS AS GROUPS

   5.  REFERENCE ATOM COORDINATES

  default_name
     Mask :1-688; matches 11281 atoms

--------------------------------------------------------------------------------
   3.  ATOMIC COORDINATES AND VELOCITIES
--------------------------------------------------------------------------------

default_name
 begin time read from input coords =  2000.000 ps

 Number of triangulated 3-point waters found:    21066

     Sum of charges from parm topology file =  -0.00000029
     Forcing neutrality...

--------------------------------------------------------------------------------
   4.  RESULTS
 NSTEP =     1000   TIME(PS) =    2001.000  TEMP(K) =   291.47  PRESS =     0.0
 Etot   =   -185556.5542  EKtot   =     44903.4023  EPtot      =   -230459.9565
 BOND   =      1618.8197  ANGLE   =      4670.4271  DIHED      =      8934.7781
 1-4 NB =      3085.6056  1-4 EEL =     28460.7257  VDWAALS    =     25008.2028
 EELEC  =   -306667.2102  EHBOND  =         0.0000  RESTRAINT  =      4428.6946
 EAMBER (non-restraint)  =   -234888.6511
 EKCMT  =         0.0000  VIRIAL  =         0.0000  VOLUME     =    823803.0735
                                                    Density    =         0.9354
 ------------------------------------------------------------------------------

      A V E R A G E S   O V E R    1000 S T E P S

 NSTEP =  1000000   TIME(PS) =    3000.000  TEMP(K) =   298.04  PRESS =     0.0
 Etot   =   -183452.9435  EKtot   =     45915.3126  EPtot      =   -229368.2561
 BOND   =      1719.8980  ANGLE   =      4920.7923  DIHED      =      8971.1807
 1-4 NB =      3098.8591  1-4 EEL =     28460.1798  VDWAALS    =     24964.8245
 EELEC  =   -306247.1966  EHBOND  =         0.0000  RESTRAINT  =      4743.2060
 EAMBER (non-restraint)  =   -234111.4621
 EKCMT  =         0.0000  VIRIAL  =         0.0000  VOLUME     =    813083.8706
                                                    Density    =         0.9477
 ------------------------------------------------------------------------------

      R M S  F L U C T U A T I O N S

 NSTEP =  1000000   TIME(PS) =    3000.000  TEMP(K) =     1.08  PRESS =     0.0
 Etot   =       308.3718  EKtot   =       166.6783  EPtot      =       250.4902
 BOND   =        31.3373  ANGLE   =        42.7360  DIHED      =        18.6299
 1-4 NB =        13.9880  1-4 EEL =        30.8979  VDWAALS    =       237.3738
 EELEC  =       375.3000  EHBOND  =         0.0000  RESTRAINT  =        48.6296
 EAMBER (non-restraint)  =       201.8606
 EKCMT  =         0.0000  VIRIAL  =         0.0000  VOLUME     =      1549.6709
                                                    Density    =         0.0018
 ------------------------------------------------------------------------------
