-------------------------------------------------------
          Amber 20 PMEMD                              2020
          -------------------------------------------------------

  [-O]verwriting output

File Assignments:

 Here is the input file:

 &cntrl
  imin = 0, nstlim = 1000000, dt = 0.001,
  irest = 1, ntx = 5, ig = -1,
  temp0 = 298.0,
  ntc = 2, ntf = 2, tol = 0.00001,
  ntwx = 10000, ntwe = 0, ntwr = 1000, ntpr = 1000,
  cut = 8.0, iwrap = 0,
  ntt =3, gamma_ln=1.0, ntb = 2, ntp = 1,
  nscm = 0, barostat = 2,
  ntr=1, restraintmask="@CA,N,C,C1,C2,C3,C4,C5,C6,C7,C8,C9,C10,C11,C12,C13,C14,
  restraint_wt=.5,
  ioutfm=1, ntxo=2,
 /

Note: ig = -1. Setting random seed to   758407 based on wallclock time in
      microseconds.

--------------------------------------------------------------------------------
   1.  RESOURCE   USE:
--------------------------------------------------------------------------------

 getting box info from netcdf restart file
 NATOM  =   74642 NTYPES =      20 NBONH =   68873 MBONA  =    5704
 NTHETH =   12912 MTHETA =    7732 NPHIH =   25877 MPHIA  =   24840
 NHPARM =       0 NPARM  =       0 NNB   =  146780 NRES   =   21917
 NBONA  =    5704 NTHETA =    7732 NPHIA =   24840 NUMBND =      78
 NUMANG =     180 NPTRA  =     201 NATYP =      45 NPHB   =       0
 IFBOX  =       2 NMXRS  =      49 IFCAP =       0 NEXTRA =       0
 NCOPY  =       0

     BOX TYPE: TRUNCATED OCTAHEDRON

--------------------------------------------------------------------------------
   2.  CONTROL  DATA  FOR  THE  RUN
--------------------------------------------------------------------------------

default_name

General flags:
     imin    =       0, nmropt  =       0

Nature and format of input:
     ntx     =       5, irest   =       1, ntrx    =       1

Nature and format of output:
     ntxo    =       2, ntpr    =    1000, ntrx    =       1, ntwr    =    1000
     iwrap   =       0, ntwx    =   10000, ntwv    =       0, ntwe    =       0
     ioutfm  =       1, ntwprt  =       0, idecomp =       0, rbornstat=      0

Potential function:
     ntf     =       2, ntb     =       2, igb     =       0, nsnb    =      25
     ipol    =       0, gbsa    =       0, iesp    =       0
     dielc   =   1.00000, cut     =   8.00000, intdiel =   1.00000

Frozen or restrained atoms:
     ibelly  =       0, ntr     =       1
     restraint_wt =   0.50000

Molecular dynamics:
     nstlim  =   1000000, nscm    =         0, nrespa  =         1
     t       =   0.00000, dt      =   0.00100, vlimit  =  -1.00000

Langevin dynamics temperature regulation:
     ig      =  758407
     temp0   = 298.00000, tempi   =   0.00000, gamma_ln=   1.00000

Pressure regulation:
     ntp     =       1
     pres0   =   1.00000, comp    =  44.60000, taup    =   1.00000
     Monte-Carlo Barostat:
     mcbarint  =     100

SHAKE:
     ntc     =       2, jfastw  =       0
     tol     =   0.00001

Ewald parameters:
     verbose =       0, ew_type =       0, nbflag  =       1, use_pme =       1
     vdwmeth =       1, eedmeth =       1, netfrc  =       1
     Box X =   98.975   Box Y =   98.975   Box Z =   98.975
     Alpha =  109.471   Beta  =  109.471   Gamma =  109.471
     NFFT1 =  100       NFFT2 =  100       NFFT3 =  100
     Cutoff=    8.000   Tol   =0.100E-04
     Ewald Coefficient =  0.34864
     Interpolation order =    4

    LOADING THE CONSTRAINED ATOMS AS GROUPS

   5.  REFERENCE ATOM COORDINATES

  default_name
     Mask @CA,N,C,C1,C2,C3,C4,C5,C6,C7,C8,C9,C10,C11,C12,C13,C14,C15,C16,C17,C18,C19,C20,O1,O1A,O2A,O3A,O1B,O2B,PA,PB; matches  2112 atoms

--------------------------------------------------------------------------------
   3.  ATOMIC COORDINATES AND VELOCITIES
--------------------------------------------------------------------------------

default_name
 begin time read from input coords =  2000.000 ps

 Number of triangulated 3-point waters found:    21066

     Sum of charges from parm topology file =  -0.00000029
     Forcing neutrality...

--------------------------------------------------------------------------------
   4.  RESULTS
 NSTEP =     1000   TIME(PS) =    2001.000  TEMP(K) =   297.67  PRESS =     0.0
 Etot   =   -193396.9476  EKtot   =     45859.6523  EPtot      =   -239256.6000
 BOND   =      1999.1788  ANGLE   =      5916.8337  DIHED      =      9490.8987
 1-4 NB =      2665.6728  1-4 EEL =     27905.8307  VDWAALS    =     24673.9277
 EELEC  =   -312065.5881  EHBOND  =         0.0000  RESTRAINT  =       156.6457
 EAMBER (non-restraint)  =   -239413.2456
 EKCMT  =         0.0000  VIRIAL  =         0.0000  VOLUME     =    746372.0945
                                                    Density    =         1.0324
 ------------------------------------------------------------------------------

      A V E R A G E S   O V E R    1000 S T E P S

 NSTEP =  1000000   TIME(PS) =    3000.000  TEMP(K) =   298.05  PRESS =     0.0
 Etot   =   -193853.8013  EKtot   =     45917.6062  EPtot      =   -239771.4075
 BOND   =      2049.3163  ANGLE   =      5885.7321  DIHED      =      9474.2863
 1-4 NB =      2665.9120  1-4 EEL =     27874.6905  VDWAALS    =     24371.0359
 EELEC  =   -312308.9544  EHBOND  =         0.0000  RESTRAINT  =       216.5740
 EAMBER (non-restraint)  =   -239987.9815
 EKCMT  =         0.0000  VIRIAL  =         0.0000  VOLUME     =    741878.8442
                                                    Density    =         1.0387
 ------------------------------------------------------------------------------

      R M S  F L U C T U A T I O N S

 NSTEP =  1000000   TIME(PS) =    3000.000  TEMP(K) =     1.05  PRESS =     0.0
 Etot   =       278.8675  EKtot   =       162.4611  EPtot      =       232.1194
 BOND   =        37.4574  ANGLE   =        56.2397  DIHED      =        31.9071
 1-4 NB =        20.5250  1-4 EEL =        53.1368  VDWAALS    =       235.8521
 EELEC  =       366.3637  EHBOND  =         0.0000  RESTRAINT  =        10.7495
 EAMBER (non-restraint)  =       221.3700
 EKCMT  =         0.0000  VIRIAL  =         0.0000  VOLUME     =      1240.7449
                                                    Density    =         0.0017
 ------------------------------------------------------------------------------
