-------------------------------------------------------
          Amber 20 PMEMD                              2020
          -------------------------------------------------------

  [-O]verwriting output

File Assignments:

 Here is the input file:

 &cntrl
  imin = 0, nstlim = 1000000, dt = 0.001,
  irest = 1, ntx = 5, ig = -1,
  temp0 = 298.0,
  ntc = 2, ntf = 2, tol = 0.00001,
  ntwx = 10000, ntwe = 0, ntwr = 1000, ntpr = 1000,
  cut = 8.0, iwrap = 0,
  ntt =3, gamma_ln=1.0, ntb = 2, ntp = 1, barostat = 2,
  nscm = 0,
  ntr=1, restraintmask=':1-688', restraint_wt=200.
  ioutfm=1, ntxo=2,
 /

Note: ig = -1. Setting random seed to   790263 based on wallclock time in
      microseconds.

--------------------------------------------------------------------------------
   1.  RESOURCE   USE:
--------------------------------------------------------------------------------

 getting box info from netcdf restart file
 NATOM  =   74796 NTYPES =      20 NBONH =   69046 MBONA  =    5681
 NTHETH =   12803 MTHETA =    7707 NPHIH =   25657 MPHIA  =   24785
 NHPARM =       0 NPARM  =       0 NNB   =  146679 NRES   =   21998
 NBONA  =    5681 NTHETA =    7707 NPHIA =   24785 NUMBND =      80
 NUMANG =     183 NPTRA  =     212 NATYP =      47 NPHB   =       0
 IFBOX  =       2 NMXRS  =      36 IFCAP =       0 NEXTRA =       0
 NCOPY  =       0

     BOX TYPE: TRUNCATED OCTAHEDRON

--------------------------------------------------------------------------------
   2.  CONTROL  DATA  FOR  THE  RUN
--------------------------------------------------------------------------------

default_name

General flags:
     imin    =       0, nmropt  =       0

Nature and format of input:
     ntx     =       5, irest   =       1, ntrx    =       1

Nature and format of output:
     ntxo    =       2, ntpr    =    1000, ntrx    =       1, ntwr    =    1000
     iwrap   =       0, ntwx    =   10000, ntwv    =       0, ntwe    =       0
     ioutfm  =       1, ntwprt  =       0, idecomp =       0, rbornstat=      0

Potential function:
     ntf     =       2, ntb     =       2, igb     =       0, nsnb    =      25
     ipol    =       0, gbsa    =       0, iesp    =       0
     dielc   =   1.00000, cut     =   8.00000, intdiel =   1.00000

Frozen or restrained atoms:
     ibelly  =       0, ntr     =       1
     restraint_wt = 200.00000

Molecular dynamics:
     nstlim  =   1000000, nscm    =         0, nrespa  =         1
     t       =   0.00000, dt      =   0.00100, vlimit  =  -1.00000

Langevin dynamics temperature regulation:
     ig      =  790263
     temp0   = 298.00000, tempi   =   0.00000, gamma_ln=   1.00000

Pressure regulation:
     ntp     =       1
     pres0   =   1.00000, comp    =  44.60000, taup    =   1.00000
     Monte-Carlo Barostat:
     mcbarint  =     100

SHAKE:
     ntc     =       2, jfastw  =       0
     tol     =   0.00001

Ewald parameters:
     verbose =       0, ew_type =       0, nbflag  =       1, use_pme =       1
     vdwmeth =       1, eedmeth =       1, netfrc  =       1
     Box X =  103.166   Box Y =  103.166   Box Z =  103.166
     Alpha =  109.471   Beta  =  109.471   Gamma =  109.471
     NFFT1 =  108       NFFT2 =  108       NFFT3 =  108
     Cutoff=    8.000   Tol   =0.100E-04
     Ewald Coefficient =  0.34864
     Interpolation order =    4

    LOADING THE CONSTRAINED ATOMS AS GROUPS

   5.  REFERENCE ATOM COORDINATES

  default_name
     Mask :1-688; matches 11204 atoms

--------------------------------------------------------------------------------
   3.  ATOMIC COORDINATES AND VELOCITIES
--------------------------------------------------------------------------------

default_name
 begin time read from input coords =  1000.000 ps

 Number of triangulated 3-point waters found:    21141

     Sum of charges from parm topology file =  -0.00000028
     Forcing neutrality...

--------------------------------------------------------------------------------
   4.  RESULTS
 NSTEP =     1000   TIME(PS) =    1001.000  TEMP(K) =   290.93  PRESS =     0.0
 Etot   =   -185710.2558  EKtot   =     44904.7383  EPtot      =   -230614.9940
 BOND   =      1383.6639  ANGLE   =      3912.7476  DIHED      =      8669.6265
 1-4 NB =      3109.7740  1-4 EEL =     29203.9059  VDWAALS    =     25681.4115
 EELEC  =   -308040.1787  EHBOND  =         0.0000  RESTRAINT  =      5464.0552
 EAMBER (non-restraint)  =   -236079.0493
 EKCMT  =         0.0000  VIRIAL  =         0.0000  VOLUME     =    845234.5913
                                                    Density    =         0.9139
 ------------------------------------------------------------------------------

      A V E R A G E S   O V E R    1000 S T E P S

 NSTEP =  1000000   TIME(PS) =    2000.000  TEMP(K) =   298.28  PRESS =     0.0
 Etot   =   -183297.2672  EKtot   =     46037.9671  EPtot      =   -229335.2343
 BOND   =      1480.2412  ANGLE   =      4081.7458  DIHED      =      8714.1545
 1-4 NB =      3121.3528  1-4 EEL =     29206.8189  VDWAALS    =     25432.0992
 EELEC  =   -307710.4528  EHBOND  =         0.0000  RESTRAINT  =      6338.8061
 EAMBER (non-restraint)  =   -235674.0404
 EKCMT  =         0.0000  VIRIAL  =         0.0000  VOLUME     =    825421.0182
                                                    Density    =         0.9359
 ------------------------------------------------------------------------------

      R M S  F L U C T U A T I O N S

 NSTEP =  1000000   TIME(PS) =    2000.000  TEMP(K) =     1.09  PRESS =     0.0
 Etot   =       290.5053  EKtot   =       168.4047  EPtot      =       236.7474
 BOND   =        26.4377  ANGLE   =        31.5788  DIHED      =        12.8613
 1-4 NB =         9.2483  1-4 EEL =        20.4531  VDWAALS    =       223.8820
 EELEC  =       353.2149  EHBOND  =         0.0000  RESTRAINT  =        62.1788
 EAMBER (non-restraint)  =       174.5687
 EKCMT  =         0.0000  VIRIAL  =         0.0000  VOLUME     =      1987.1074
                                                    Density    =         0.0022
 ------------------------------------------------------------------------------
