-------------------------------------------------------
          Amber 20 PMEMD                              2020
          -------------------------------------------------------

  [-O]verwriting output

File Assignments:

 Here is the input file:

 &cntrl
  imin = 0, nstlim = 1000000, dt = 0.001,
  irest = 1, ntx = 5, ig = -1,
  temp0 = 298.0,
  ntc = 2, ntf = 2, tol = 0.00001,
  ntwx = 10000, ntwe = 0, ntwr = 1000, ntpr = 1000,
  cut = 8.0, iwrap = 0,
  ntt =3,  gamma_ln=1.0, ntb = 2, ntp = 1,
  nscm = 0, barostat = 2,
  ntr=1, restraintmask=':1-688', restraint_wt=50.
  ioutfm=1, ntxo=2,
 /

Note: ig = -1. Setting random seed to   585870 based on wallclock time in
      microseconds.

--------------------------------------------------------------------------------
   1.  RESOURCE   USE:
--------------------------------------------------------------------------------

 getting box info from netcdf restart file
 NATOM  =   74796 NTYPES =      20 NBONH =   69046 MBONA  =    5681
 NTHETH =   12803 MTHETA =    7707 NPHIH =   25657 MPHIA  =   24785
 NHPARM =       0 NPARM  =       0 NNB   =  146679 NRES   =   21998
 NBONA  =    5681 NTHETA =    7707 NPHIA =   24785 NUMBND =      80
 NUMANG =     183 NPTRA  =     212 NATYP =      47 NPHB   =       0
 IFBOX  =       2 NMXRS  =      36 IFCAP =       0 NEXTRA =       0
 NCOPY  =       0

     BOX TYPE: TRUNCATED OCTAHEDRON

--------------------------------------------------------------------------------
   2.  CONTROL  DATA  FOR  THE  RUN
--------------------------------------------------------------------------------

default_name

General flags:
     imin    =       0, nmropt  =       0

Nature and format of input:
     ntx     =       5, irest   =       1, ntrx    =       1

Nature and format of output:
     ntxo    =       2, ntpr    =    1000, ntrx    =       1, ntwr    =    1000
     iwrap   =       0, ntwx    =   10000, ntwv    =       0, ntwe    =       0
     ioutfm  =       1, ntwprt  =       0, idecomp =       0, rbornstat=      0

Potential function:
     ntf     =       2, ntb     =       2, igb     =       0, nsnb    =      25
     ipol    =       0, gbsa    =       0, iesp    =       0
     dielc   =   1.00000, cut     =   8.00000, intdiel =   1.00000

Frozen or restrained atoms:
     ibelly  =       0, ntr     =       1
     restraint_wt =  50.00000

Molecular dynamics:
     nstlim  =   1000000, nscm    =         0, nrespa  =         1
     t       =   0.00000, dt      =   0.00100, vlimit  =  -1.00000

Langevin dynamics temperature regulation:
     ig      =  585870
     temp0   = 298.00000, tempi   =   0.00000, gamma_ln=   1.00000

Pressure regulation:
     ntp     =       1
     pres0   =   1.00000, comp    =  44.60000, taup    =   1.00000
     Monte-Carlo Barostat:
     mcbarint  =     100

SHAKE:
     ntc     =       2, jfastw  =       0
     tol     =   0.00001

Ewald parameters:
     verbose =       0, ew_type =       0, nbflag  =       1, use_pme =       1
     vdwmeth =       1, eedmeth =       1, netfrc  =       1
     Box X =  102.363   Box Y =  102.363   Box Z =  102.363
     Alpha =  109.471   Beta  =  109.471   Gamma =  109.471
     NFFT1 =  108       NFFT2 =  108       NFFT3 =  108
     Cutoff=    8.000   Tol   =0.100E-04
     Ewald Coefficient =  0.34864
     Interpolation order =    4

    LOADING THE CONSTRAINED ATOMS AS GROUPS

   5.  REFERENCE ATOM COORDINATES

  default_name
     Mask :1-688; matches 11204 atoms

--------------------------------------------------------------------------------
   3.  ATOMIC COORDINATES AND VELOCITIES
--------------------------------------------------------------------------------

default_name
 begin time read from input coords =  2000.000 ps

 Number of triangulated 3-point waters found:    21141

     Sum of charges from parm topology file =  -0.00000028
     Forcing neutrality...

--------------------------------------------------------------------------------
   4.  RESULTS
 NSTEP =     1000   TIME(PS) =    2001.000  TEMP(K) =   292.67  PRESS =     0.0
 Etot   =   -186565.0396  EKtot   =     45172.6797  EPtot      =   -231737.7192
 BOND   =      1580.8458  ANGLE   =      4606.3089  DIHED      =      8863.4595
 1-4 NB =      3032.0440  1-4 EEL =     28996.0245  VDWAALS    =     24800.3228
 EELEC  =   -307960.3866  EHBOND  =         0.0000  RESTRAINT  =      4343.6617
 EAMBER (non-restraint)  =   -236081.3809
 EKCMT  =         0.0000  VIRIAL  =         0.0000  VOLUME     =    825326.3805
                                                    Density    =         0.9360
 ------------------------------------------------------------------------------

      A V E R A G E S   O V E R    1000 S T E P S

 NSTEP =  1000000   TIME(PS) =    3000.000  TEMP(K) =   297.99  PRESS =     0.0
 Etot   =   -185132.8130  EKtot   =     45993.2733  EPtot      =   -231126.0863
 BOND   =      1683.2120  ANGLE   =      4786.1035  DIHED      =      8913.4842
 1-4 NB =      3062.3572  1-4 EEL =     29034.3162  VDWAALS    =     24938.1052
 EELEC  =   -308189.8075  EHBOND  =         0.0000  RESTRAINT  =      4646.1429
 EAMBER (non-restraint)  =   -235772.2292
 EKCMT  =         0.0000  VIRIAL  =         0.0000  VOLUME     =    814175.4533
                                                    Density    =         0.9488
 ------------------------------------------------------------------------------

      R M S  F L U C T U A T I O N S

 NSTEP =  1000000   TIME(PS) =    3000.000  TEMP(K) =     1.07  PRESS =     0.0
 Etot   =       305.7701  EKtot   =       165.3392  EPtot      =       250.0811
 BOND   =        31.1636  ANGLE   =        43.0282  DIHED      =        18.4328
 1-4 NB =        13.5207  1-4 EEL =        30.1835  VDWAALS    =       229.8156
 EELEC  =       379.9134  EHBOND  =         0.0000  RESTRAINT  =        47.5633
 EAMBER (non-restraint)  =       202.5178
 EKCMT  =         0.0000  VIRIAL  =         0.0000  VOLUME     =      1605.1318
                                                    Density    =         0.0019
 ------------------------------------------------------------------------------
