-------------------------------------------------------
          Amber 20 PMEMD                              2020
          -------------------------------------------------------

  [-O]verwriting output

File Assignments:

 Here is the input file:

 &cntrl
  imin = 0, nstlim = 1000000, dt = 0.001,
  irest = 1, ntx = 5, ig = -1,
  temp0 = 298.0,
  ntc = 2, ntf = 2, tol = 0.00001,
  ntwx = 10000, ntwe = 0, ntwr = 1000, ntpr = 1000,
  cut = 8.0, iwrap = 0,
  ntt =3, gamma_ln=1.0, ntb = 2, ntp = 1,
  nscm = 0, barostat = 2,
  ntr=1, restraintmask="@CA,N,C,C1,C2,C3,C4,C5,OC6,C7,C8,C9,C10,C11,C12,C13,C14
  restraint_wt=5.,
  ioutfm=1, ntxo=2,
 /

Note: ig = -1. Setting random seed to   448154 based on wallclock time in
      microseconds.

--------------------------------------------------------------------------------
   1.  RESOURCE   USE:
--------------------------------------------------------------------------------

 getting box info from netcdf restart file
 NATOM  =   74796 NTYPES =      20 NBONH =   69046 MBONA  =    5681
 NTHETH =   12803 MTHETA =    7707 NPHIH =   25657 MPHIA  =   24785
 NHPARM =       0 NPARM  =       0 NNB   =  146679 NRES   =   21998
 NBONA  =    5681 NTHETA =    7707 NPHIA =   24785 NUMBND =      80
 NUMANG =     183 NPTRA  =     212 NATYP =      47 NPHB   =       0
 IFBOX  =       2 NMXRS  =      36 IFCAP =       0 NEXTRA =       0
 NCOPY  =       0

     BOX TYPE: TRUNCATED OCTAHEDRON

--------------------------------------------------------------------------------
   2.  CONTROL  DATA  FOR  THE  RUN
--------------------------------------------------------------------------------

default_name

General flags:
     imin    =       0, nmropt  =       0

Nature and format of input:
     ntx     =       5, irest   =       1, ntrx    =       1

Nature and format of output:
     ntxo    =       2, ntpr    =    1000, ntrx    =       1, ntwr    =    1000
     iwrap   =       0, ntwx    =   10000, ntwv    =       0, ntwe    =       0
     ioutfm  =       1, ntwprt  =       0, idecomp =       0, rbornstat=      0

Potential function:
     ntf     =       2, ntb     =       2, igb     =       0, nsnb    =      25
     ipol    =       0, gbsa    =       0, iesp    =       0
     dielc   =   1.00000, cut     =   8.00000, intdiel =   1.00000

Frozen or restrained atoms:
     ibelly  =       0, ntr     =       1
     restraint_wt =   5.00000

Molecular dynamics:
     nstlim  =   1000000, nscm    =         0, nrespa  =         1
     t       =   0.00000, dt      =   0.00100, vlimit  =  -1.00000

Langevin dynamics temperature regulation:
     ig      =  448154
     temp0   = 298.00000, tempi   =   0.00000, gamma_ln=   1.00000

Pressure regulation:
     ntp     =       1
     pres0   =   1.00000, comp    =  44.60000, taup    =   1.00000
     Monte-Carlo Barostat:
     mcbarint  =     100

SHAKE:
     ntc     =       2, jfastw  =       0
     tol     =   0.00001

Ewald parameters:
     verbose =       0, ew_type =       0, nbflag  =       1, use_pme =       1
     vdwmeth =       1, eedmeth =       1, netfrc  =       1
     Box X =   99.318   Box Y =   99.318   Box Z =   99.318
     Alpha =  109.471   Beta  =  109.471   Gamma =  109.471
     NFFT1 =  100       NFFT2 =  100       NFFT3 =  100
     Cutoff=    8.000   Tol   =0.100E-04
     Ewald Coefficient =  0.34864
     Interpolation order =    4

    LOADING THE CONSTRAINED ATOMS AS GROUPS

   5.  REFERENCE ATOM COORDINATES

  default_name
     Mask @CA,N,C,C1,C2,C3,C4,C5,OC6,C7,C8,C9,C10,C11,C12,C13,C14,C15,C16,C17,C18,C19,C20,O1,O1A,O2A,O3A,O1B,O2B,PA,PB; matches  2100 atoms

--------------------------------------------------------------------------------
   3.  ATOMIC COORDINATES AND VELOCITIES
--------------------------------------------------------------------------------

default_name
 begin time read from input coords =  1000.000 ps

 Number of triangulated 3-point waters found:    21141

     Sum of charges from parm topology file =  -0.00000028
     Forcing neutrality...

--------------------------------------------------------------------------------
   4.  RESULTS
 NSTEP =     1000   TIME(PS) =    1001.000  TEMP(K) =   298.66  PRESS =     0.0
 Etot   =   -193228.9613  EKtot   =     46097.4883  EPtot      =   -239326.4495
 BOND   =      2030.3252  ANGLE   =      5864.1892  DIHED      =      9501.6351
 1-4 NB =      2719.5059  1-4 EEL =     28459.7867  VDWAALS    =     24444.3505
 EELEC  =   -312881.6496  EHBOND  =         0.0000  RESTRAINT  =       535.4074
 EAMBER (non-restraint)  =   -239861.8570
 EKCMT  =         0.0000  VIRIAL  =         0.0000  VOLUME     =    753708.7049
                                                    Density    =         1.0249
 ------------------------------------------------------------------------------

      A V E R A G E S   O V E R    1000 S T E P S

 NSTEP =  1000000   TIME(PS) =    2000.000  TEMP(K) =   298.01  PRESS =     0.0
 Etot   =   -193783.5572  EKtot   =     45996.8281  EPtot      =   -239780.3853
 BOND   =      2011.4501  ANGLE   =      5852.8737  DIHED      =      9468.4526
 1-4 NB =      2704.0313  1-4 EEL =     28523.1682  VDWAALS    =     24449.2864
 EELEC  =   -313366.8199  EHBOND  =         0.0000  RESTRAINT  =       577.1724
 EAMBER (non-restraint)  =   -240357.5576
 EKCMT  =         0.0000  VIRIAL  =         0.0000  VOLUME     =    748665.4295
                                                    Density    =         1.0318
 ------------------------------------------------------------------------------

      R M S  F L U C T U A T I O N S

 NSTEP =  1000000   TIME(PS) =    2000.000  TEMP(K) =     1.11  PRESS =     0.0
 Etot   =       288.8426  EKtot   =       170.6474  EPtot      =       232.8550
 BOND   =        39.6361  ANGLE   =        52.6548  DIHED      =        34.6155
 1-4 NB =        20.7046  1-4 EEL =        53.7239  VDWAALS    =       231.4314
 EELEC  =       366.9834  EHBOND  =         0.0000  RESTRAINT  =        18.9762
 EAMBER (non-restraint)  =       213.8788
 EKCMT  =         0.0000  VIRIAL  =         0.0000  VOLUME     =      1188.2631
                                                    Density    =         0.0016
 ------------------------------------------------------------------------------
