-------------------------------------------------------
          Amber 20 PMEMD                              2020
          -------------------------------------------------------

  [-O]verwriting output

File Assignments:

 Here is the input file:

 &cntrl
  imin = 0, nstlim = 1000000, dt = 0.001,
  irest = 1, ntx = 5, ig = -1,
  temp0 = 298.0,
  ntc = 2, ntf = 2, tol = 0.00001,
  ntwx = 10000, ntwe = 0, ntwr = 1000, ntpr = 1000,
  cut = 8.0, iwrap = 0,
  ntt =3, gamma_ln=1.0, ntb = 2, ntp = 1,
  nscm = 0, barostat = 2,
  ntr=1, restraintmask="@CA,N,C,C1,C2,C3,C4,C5,C6,C7,C8,C9,C10,C11,C12,C13,C14,
  restraint_wt=.5,
  ioutfm=1, ntxo=2,
 /

Note: ig = -1. Setting random seed to   681537 based on wallclock time in
      microseconds.

--------------------------------------------------------------------------------
   1.  RESOURCE   USE:
--------------------------------------------------------------------------------

 getting box info from netcdf restart file
 NATOM  =   74796 NTYPES =      20 NBONH =   69046 MBONA  =    5681
 NTHETH =   12803 MTHETA =    7707 NPHIH =   25657 MPHIA  =   24785
 NHPARM =       0 NPARM  =       0 NNB   =  146679 NRES   =   21998
 NBONA  =    5681 NTHETA =    7707 NPHIA =   24785 NUMBND =      80
 NUMANG =     183 NPTRA  =     212 NATYP =      47 NPHB   =       0
 IFBOX  =       2 NMXRS  =      36 IFCAP =       0 NEXTRA =       0
 NCOPY  =       0

     BOX TYPE: TRUNCATED OCTAHEDRON

--------------------------------------------------------------------------------
   2.  CONTROL  DATA  FOR  THE  RUN
--------------------------------------------------------------------------------

default_name

General flags:
     imin    =       0, nmropt  =       0

Nature and format of input:
     ntx     =       5, irest   =       1, ntrx    =       1

Nature and format of output:
     ntxo    =       2, ntpr    =    1000, ntrx    =       1, ntwr    =    1000
     iwrap   =       0, ntwx    =   10000, ntwv    =       0, ntwe    =       0
     ioutfm  =       1, ntwprt  =       0, idecomp =       0, rbornstat=      0

Potential function:
     ntf     =       2, ntb     =       2, igb     =       0, nsnb    =      25
     ipol    =       0, gbsa    =       0, iesp    =       0
     dielc   =   1.00000, cut     =   8.00000, intdiel =   1.00000

Frozen or restrained atoms:
     ibelly  =       0, ntr     =       1
     restraint_wt =   0.50000

Molecular dynamics:
     nstlim  =   1000000, nscm    =         0, nrespa  =         1
     t       =   0.00000, dt      =   0.00100, vlimit  =  -1.00000

Langevin dynamics temperature regulation:
     ig      =  681537
     temp0   = 298.00000, tempi   =   0.00000, gamma_ln=   1.00000

Pressure regulation:
     ntp     =       1
     pres0   =   1.00000, comp    =  44.60000, taup    =   1.00000
     Monte-Carlo Barostat:
     mcbarint  =     100

SHAKE:
     ntc     =       2, jfastw  =       0
     tol     =   0.00001

Ewald parameters:
     verbose =       0, ew_type =       0, nbflag  =       1, use_pme =       1
     vdwmeth =       1, eedmeth =       1, netfrc  =       1
     Box X =   99.169   Box Y =   99.169   Box Z =   99.169
     Alpha =  109.471   Beta  =  109.471   Gamma =  109.471
     NFFT1 =  100       NFFT2 =  100       NFFT3 =  100
     Cutoff=    8.000   Tol   =0.100E-04
     Ewald Coefficient =  0.34864
     Interpolation order =    4

    LOADING THE CONSTRAINED ATOMS AS GROUPS

   5.  REFERENCE ATOM COORDINATES

  default_name
     Mask @CA,N,C,C1,C2,C3,C4,C5,C6,C7,C8,C9,C10,C11,C12,C13,C14,C15,C16,C17,C18,C19,C20,O1,O1A,O2A,O3A,O1B,O2B,PA,PB; matches  2102 atoms

--------------------------------------------------------------------------------
   3.  ATOMIC COORDINATES AND VELOCITIES
--------------------------------------------------------------------------------

default_name
 begin time read from input coords =  2000.000 ps

 Number of triangulated 3-point waters found:    21141

     Sum of charges from parm topology file =  -0.00000028
     Forcing neutrality...

--------------------------------------------------------------------------------
   4.  RESULTS
 NSTEP =     1000   TIME(PS) =    2001.000  TEMP(K) =   299.15  PRESS =     0.0
 Etot   =   -194301.1295  EKtot   =     46173.2070  EPtot      =   -240474.3366
 BOND   =      1999.5025  ANGLE   =      5774.4149  DIHED      =      9485.1735
 1-4 NB =      2673.1292  1-4 EEL =     28484.3161  VDWAALS    =     24318.9035
 EELEC  =   -313380.5144  EHBOND  =         0.0000  RESTRAINT  =       170.7381
 EAMBER (non-restraint)  =   -240645.0747
 EKCMT  =         0.0000  VIRIAL  =         0.0000  VOLUME     =    750196.5473
                                                    Density    =         1.0297
 ------------------------------------------------------------------------------

      A V E R A G E S   O V E R    1000 S T E P S

 NSTEP =  1000000   TIME(PS) =    3000.000  TEMP(K) =   298.04  PRESS =     0.0
 Etot   =   -194940.4857  EKtot   =     46002.2948  EPtot      =   -240942.7805
 BOND   =      2034.9876  ANGLE   =      5852.8649  DIHED      =      9422.1798
 1-4 NB =      2656.4999  1-4 EEL =     28384.3418  VDWAALS    =     24560.3518
 EELEC  =   -314091.5160  EHBOND  =         0.0000  RESTRAINT  =       237.5097
 EAMBER (non-restraint)  =   -241180.2902
 EKCMT  =         0.0000  VIRIAL  =         0.0000  VOLUME     =    743583.3366
                                                    Density    =         1.0389
 ------------------------------------------------------------------------------

      R M S  F L U C T U A T I O N S

 NSTEP =  1000000   TIME(PS) =    3000.000  TEMP(K) =     1.04  PRESS =     0.0
 Etot   =       276.9769  EKtot   =       160.3666  EPtot      =       230.1426
 BOND   =        37.6811  ANGLE   =        55.5010  DIHED      =        33.9380
 1-4 NB =        22.1619  1-4 EEL =        59.4126  VDWAALS    =       233.5628
 EELEC  =       357.6096  EHBOND  =         0.0000  RESTRAINT  =        12.2779
 EAMBER (non-restraint)  =       217.8647
 EKCMT  =         0.0000  VIRIAL  =         0.0000  VOLUME     =      1258.3875
                                                    Density    =         0.0018
 ------------------------------------------------------------------------------
